rawData/archived/ieee730_1ph/Loads.dss
! Specifying Loads as Model 1 and 2 type loads. For no CVR, Model 2 loads will be blank
New load.S41P Bus=41.1 Phases=1 Model=1 kV=0.24 kW=0.831 kVAr=0.277 Vminpu=0.95 Vmaxpu=1.05 Daily=LoadShapeLoadDefault
New load.S42P Bus=42.1 Phases=1 Model=1 kV=0.24 kW=0.734 kVAr=0.245 Vminpu=0.95 Vmaxpu=1.05 Daily=LoadShapeLoadDefault
New load.S43P Bus=43.1 Phases=1 Model=1 kV=0.24 kW=0.691 kVAr=0.23 Vminpu=0.95 Vmaxpu=1.05 Daily=LoadShapeLoadDefault
New load.S44P Bus=44.1 Phases=1 Model=1 kV=0.24 kW=0.876 kVAr=0.292 Vminpu=0.95 Vmaxpu=1.05 Daily=LoadShapeLoadDefault
New load.S45P Bus=45.1 Phases=1 Model=1 kV=0.24 kW=0.912 kVAr=0.304 Vminpu=0.95 Vmaxpu=1.05 Daily=LoadShapeLoadDefault
New load.S46P Bus=46.1 Phases=1 Model=1 kV=0.24 kW=0.692 kVAr=0.231 Vminpu=0.95 Vmaxpu=1.05 Daily=LoadShapeLoadDefault
New load.S47P Bus=47.1 Phases=1 Model=1 kV=0.24 kW=0.792 kVAr=0.264 Vminpu=0.95 Vmaxpu=1.05 Daily=LoadShapeLoadDefault
New load.S48P Bus=48.1 Phases=1 Model=1 kV=0.24 kW=1.512 kVAr=0.504 Vminpu=0.95 Vmaxpu=1.05 Daily=LoadShapeLoadDefault
New load.S49P Bus=49.1 Phases=1 Model=1 kV=0.24 kW=1.25 kVAr=0.417 Vminpu=0.95 Vmaxpu=1.05 Daily=LoadShapeLoadDefault
New load.S50P Bus=50.1 Phases=1 Model=1 kV=0.24 kW=0.822 kVAr=0.274 Vminpu=0.95 Vmaxpu=1.05 Daily=LoadShapeLoadDefault
New load.S51P Bus=51.1 Phases=1 Model=1 kV=0.24 kW=0.843 kVAr=0.281 Vminpu=0.95 Vmaxpu=1.05 Daily=LoadShapeLoadDefault
New load.S52P Bus=52.1 Phases=1 Model=1 kV=0.24 kW=0.884 kVAr=0.295 Vminpu=0.95 Vmaxpu=1.05 Daily=LoadShapeLoadDefault
New load.S59P Bus=59.1 Phases=1 Model=1 kV=0.24 kW=1.038 kVAr=0.346 Vminpu=0.95 Vmaxpu=1.05 Daily=LoadShapeLoadDefault
New load.S60P Bus=60.1 Phases=1 Model=1 kV=0.24 kW=2.373 kVAr=0.791 Vminpu=0.95 Vmaxpu=1.05 Daily=LoadShapeLoadDefault
New load.S61P Bus=61.1 Phases=1 Model=1 kV=0.24 kW=1.51 kVAr=0.503 Vminpu=0.95 Vmaxpu=1.05 Daily=LoadShapeLoadDefault
New load.S62P Bus=62.1 Phases=1 Model=1 kV=0.24 kW=1.617 kVAr=0.539 Vminpu=0.95 Vmaxpu=1.05 Daily=LoadShapeLoadDefault
New load.S63P Bus=63.1 Phases=1 Model=1 kV=0.24 kW=1.894 kVAr=0.631 Vminpu=0.95 Vmaxpu=1.05 Daily=LoadShapeLoadDefault
New load.S64P Bus=64.1 Phases=1 Model=1 kV=0.24 kW=1.321 kVAr=0.44 Vminpu=0.95 Vmaxpu=1.05 Daily=LoadShapeLoadDefault
New load.S65P Bus=65.1 Phases=1 Model=1 kV=0.24 kW=2.586 kVAr=0.862 Vminpu=0.95 Vmaxpu=1.05 Daily=LoadShapeLoadDefault
New load.S66P Bus=66.1 Phases=1 Model=1 kV=0.24 kW=1.267 kVAr=0.422 Vminpu=0.95 Vmaxpu=1.05 Daily=LoadShapeLoadDefault
New load.S67P Bus=67.1 Phases=1 Model=1 kV=0.24 kW=1.275 kVAr=0.425 Vminpu=0.95 Vmaxpu=1.05 Daily=LoadShapeLoadDefault
New load.S68P Bus=68.1 Phases=1 Model=1 kV=0.24 kW=1.95 kVAr=0.65 Vminpu=0.95 Vmaxpu=1.05 Daily=LoadShapeLoadDefault
New load.S74P Bus=74.1 Phases=1 Model=1 kV=0.24 kW=2.034 kVAr=0.678 Vminpu=0.95 Vmaxpu=1.05 Daily=LoadShapeLoadDefault
New load.S75P Bus=75.1 Phases=1 Model=1 kV=0.24 kW=1.349 kVAr=0.45 Vminpu=0.95 Vmaxpu=1.05 Daily=LoadShapeLoadDefault
New load.S76P Bus=76.1 Phases=1 Model=1 kV=0.24 kW=1.679 kVAr=0.56 Vminpu=0.95 Vmaxpu=1.05 Daily=LoadShapeLoadDefault
New load.S77P Bus=77.1 Phases=1 Model=1 kV=0.24 kW=1.324 kVAr=0.441 Vminpu=0.95 Vmaxpu=1.05 Daily=LoadShapeLoadDefault
New load.S78P Bus=78.1 Phases=1 Model=1 kV=0.24 kW=1.377 kVAr=0.459 Vminpu=0.95 Vmaxpu=1.05 Daily=LoadShapeLoadDefault
New load.S79P Bus=79.1 Phases=1 Model=1 kV=0.24 kW=1.808 kVAr=0.603 Vminpu=0.95 Vmaxpu=1.05 Daily=LoadShapeLoadDefault
New load.S80P Bus=80.1 Phases=1 Model=1 kV=0.24 kW=2.042 kVAr=0.681 Vminpu=0.95 Vmaxpu=1.05 Daily=LoadShapeLoadDefault
New load.S81P Bus=81.1 Phases=1 Model=1 kV=0.24 kW=2.015 kVAr=0.672 Vminpu=0.95 Vmaxpu=1.05 Daily=LoadShapeLoadDefault
New load.S87P Bus=87.1 Phases=1 Model=1 kV=0.24 kW=1.387 kVAr=0.462 Vminpu=0.95 Vmaxpu=1.05 Daily=LoadShapeLoadDefault
New load.S88P Bus=88.1 Phases=1 Model=1 kV=0.24 kW=1.363 kVAr=0.454 Vminpu=0.95 Vmaxpu=1.05 Daily=LoadShapeLoadDefault
New load.S89P Bus=89.1 Phases=1 Model=1 kV=0.24 kW=1.301 kVAr=0.434 Vminpu=0.95 Vmaxpu=1.05 Daily=LoadShapeLoadDefault
New load.S90P Bus=90.1 Phases=1 Model=1 kV=0.24 kW=1.339 kVAr=0.446 Vminpu=0.95 Vmaxpu=1.05 Daily=LoadShapeLoadDefault
New load.S91P Bus=91.1 Phases=1 Model=1 kV=0.24 kW=1.376 kVAr=0.459 Vminpu=0.95 Vmaxpu=1.05 Daily=LoadShapeLoadDefault
New load.S92P Bus=92.1 Phases=1 Model=1 kV=0.24 kW=1.206 kVAr=0.402 Vminpu=0.95 Vmaxpu=1.05 Daily=LoadShapeLoadDefault
New load.S93P Bus=93.1 Phases=1 Model=1 kV=0.24 kW=1.384 kVAr=0.461 Vminpu=0.95 Vmaxpu=1.05 Daily=LoadShapeLoadDefault
New load.S94P Bus=94.1 Phases=1 Model=1 kV=0.24 kW=2.939 kVAr=0.98 Vminpu=0.95 Vmaxpu=1.05 Daily=LoadShapeLoadDefault
New load.S100P Bus=100.1 Phases=1 Model=1 kV=0.24 kW=0.983 kVAr=0.328 Vminpu=0.95 Vmaxpu=1.05 Daily=LoadShapeLoadDefault
New load.S101P Bus=101.1 Phases=1 Model=1 kV=0.24 kW=2.582 kVAr=0.861 Vminpu=0.95 Vmaxpu=1.05 Daily=LoadShapeLoadDefault
New load.S102P Bus=102.1 Phases=1 Model=1 kV=0.24 kW=2.168 kVAr=0.723 Vminpu=0.95 Vmaxpu=1.05 Daily=LoadShapeLoadDefault
New load.S103P Bus=103.1 Phases=1 Model=1 kV=0.24 kW=1.496 kVAr=0.499 Vminpu=0.95 Vmaxpu=1.05 Daily=LoadShapeLoadDefault
New load.S104P Bus=104.1 Phases=1 Model=1 kV=0.24 kW=1.57 kVAr=0.523 Vminpu=0.95 Vmaxpu=1.05 Daily=LoadShapeLoadDefault
New load.S105P Bus=105.1 Phases=1 Model=1 kV=0.24 kW=2.161 kVAr=0.72 Vminpu=0.95 Vmaxpu=1.05 Daily=LoadShapeLoadDefault
New load.S106P Bus=106.1 Phases=1 Model=1 kV=0.24 kW=2.857 kVAr=0.952 Vminpu=0.95 Vmaxpu=1.05 Daily=LoadShapeLoadDefault
New load.S107P Bus=107.1 Phases=1 Model=1 kV=0.24 kW=0.692 kVAr=0.231 Vminpu=0.95 Vmaxpu=1.05 Daily=LoadShapeLoadDefault
New load.S115P Bus=115.1 Phases=1 Model=1 kV=0.24 kW=1.561 kVAr=0.52 Vminpu=0.95 Vmaxpu=1.05 Daily=LoadShapeLoadDefault
New load.S116P Bus=116.1 Phases=1 Model=1 kV=0.24 kW=0.846 kVAr=0.282 Vminpu=0.95 Vmaxpu=1.05 Daily=LoadShapeLoadDefault
New load.S117P Bus=117.1 Phases=1 Model=1 kV=0.24 kW=0.795 kVAr=0.265 Vminpu=0.95 Vmaxpu=1.05 Daily=LoadShapeLoadDefault
New load.S118P Bus=118.1 Phases=1 Model=1 kV=0.24 kW=2.373 kVAr=0.791 Vminpu=0.95 Vmaxpu=1.05 Daily=LoadShapeLoadDefault
New load.S119P Bus=119.1 Phases=1 Model=1 kV=0.24 kW=2.066 kVAr=0.689 Vminpu=0.95 Vmaxpu=1.05 Daily=LoadShapeLoadDefault
New load.S120P Bus=120.1 Phases=1 Model=1 kV=0.24 kW=0.756 kVAr=0.252 Vminpu=0.95 Vmaxpu=1.05 Daily=LoadShapeLoadDefault
New load.S121P Bus=121.1 Phases=1 Model=1 kV=0.24 kW=0.7 kVAr=0.233 Vminpu=0.95 Vmaxpu=1.05 Daily=LoadShapeLoadDefault
New load.S122P Bus=122.1 Phases=1 Model=1 kV=0.24 kW=0.69 kVAr=0.23 Vminpu=0.95 Vmaxpu=1.05 Daily=LoadShapeLoadDefault
New load.S123P Bus=123.1 Phases=1 Model=1 kV=0.24 kW=0.983 kVAr=0.328 Vminpu=0.95 Vmaxpu=1.05 Daily=LoadShapeLoadDefault
New load.S124P Bus=124.1 Phases=1 Model=1 kV=0.24 kW=0.797 kVAr=0.266 Vminpu=0.95 Vmaxpu=1.05 Daily=LoadShapeLoadDefault
New load.S125P Bus=125.1 Phases=1 Model=1 kV=0.24 kW=1.345 kVAr=0.448 Vminpu=0.95 Vmaxpu=1.05 Daily=LoadShapeLoadDefault
New load.S126P Bus=126.1 Phases=1 Model=1 kV=0.24 kW=1.126 kVAr=0.375 Vminpu=0.95 Vmaxpu=1.05 Daily=LoadShapeLoadDefault
New load.S134P Bus=134.1 Phases=1 Model=1 kV=0.24 kW=1.55 kVAr=0.517 Vminpu=0.95 Vmaxpu=1.05 Daily=LoadShapeLoadDefault
New load.S135P Bus=135.1 Phases=1 Model=1 kV=0.24 kW=0.733 kVAr=0.244 Vminpu=0.95 Vmaxpu=1.05 Daily=LoadShapeLoadDefault
New load.S136P Bus=136.1 Phases=1 Model=1 kV=0.24 kW=0.897 kVAr=0.299 Vminpu=0.95 Vmaxpu=1.05 Daily=LoadShapeLoadDefault
New load.S137P Bus=137.1 Phases=1 Model=1 kV=0.24 kW=0.71 kVAr=0.237 Vminpu=0.95 Vmaxpu=1.05 Daily=LoadShapeLoadDefault
New load.S138P Bus=138.1 Phases=1 Model=1 kV=0.24 kW=0.895 kVAr=0.298 Vminpu=0.95 Vmaxpu=1.05 Daily=LoadShapeLoadDefault
New load.S139P Bus=139.1 Phases=1 Model=1 kV=0.24 kW=0.726 kVAr=0.242 Vminpu=0.95 Vmaxpu=1.05 Daily=LoadShapeLoadDefault
New load.S140P Bus=140.1 Phases=1 Model=1 kV=0.24 kW=0.646 kVAr=0.215 Vminpu=0.95 Vmaxpu=1.05 Daily=LoadShapeLoadDefault
New load.S141P Bus=141.1 Phases=1 Model=1 kV=0.24 kW=0.777 kVAr=0.259 Vminpu=0.95 Vmaxpu=1.05 Daily=LoadShapeLoadDefault
New load.S142P Bus=142.1 Phases=1 Model=1 kV=0.24 kW=0.845 kVAr=0.282 Vminpu=0.95 Vmaxpu=1.05 Daily=LoadShapeLoadDefault
New load.S143P Bus=143.1 Phases=1 Model=1 kV=0.24 kW=0.803 kVAr=0.268 Vminpu=0.95 Vmaxpu=1.05 Daily=LoadShapeLoadDefault
New load.S144P Bus=144.1 Phases=1 Model=1 kV=0.24 kW=0.952 kVAr=0.317 Vminpu=0.95 Vmaxpu=1.05 Daily=LoadShapeLoadDefault
New load.S145P Bus=145.1 Phases=1 Model=1 kV=0.24 kW=0.727 kVAr=0.242 Vminpu=0.95 Vmaxpu=1.05 Daily=LoadShapeLoadDefault
New load.S153P Bus=153.1 Phases=1 Model=1 kV=0.24 kW=0.673 kVAr=0.224 Vminpu=0.95 Vmaxpu=1.05 Daily=LoadShapeLoadDefault
New load.S154P Bus=154.1 Phases=1 Model=1 kV=0.24 kW=1.106 kVAr=0.369 Vminpu=0.95 Vmaxpu=1.05 Daily=LoadShapeLoadDefault
New load.S155P Bus=155.1 Phases=1 Model=1 kV=0.24 kW=1.4 kVAr=0.467 Vminpu=0.95 Vmaxpu=1.05 Daily=LoadShapeLoadDefault
New load.S156P Bus=156.1 Phases=1 Model=1 kV=0.24 kW=1.523 kVAr=0.508 Vminpu=0.95 Vmaxpu=1.05 Daily=LoadShapeLoadDefault
New load.S157P Bus=157.1 Phases=1 Model=1 kV=0.24 kW=2.151 kVAr=0.717 Vminpu=0.95 Vmaxpu=1.05 Daily=LoadShapeLoadDefault
New load.S158P Bus=158.1 Phases=1 Model=1 kV=0.24 kW=0.777 kVAr=0.259 Vminpu=0.95 Vmaxpu=1.05 Daily=LoadShapeLoadDefault
New load.S159P Bus=159.1 Phases=1 Model=1 kV=0.24 kW=0.723 kVAr=0.241 Vminpu=0.95 Vmaxpu=1.05 Daily=LoadShapeLoadDefault
New load.S160P Bus=160.1 Phases=1 Model=1 kV=0.24 kW=0.648 kVAr=0.216 Vminpu=0.95 Vmaxpu=1.05 Daily=LoadShapeLoadDefault
New load.S161P Bus=161.1 Phases=1 Model=1 kV=0.24 kW=0.698 kVAr=0.233 Vminpu=0.95 Vmaxpu=1.05 Daily=LoadShapeLoadDefault
New load.S162P Bus=162.1 Phases=1 Model=1 kV=0.24 kW=0.74 kVAr=0.247 Vminpu=0.95 Vmaxpu=1.05 Daily=LoadShapeLoadDefault
New load.S163P Bus=163.1 Phases=1 Model=1 kV=0.24 kW=0.892 kVAr=0.297 Vminpu=0.95 Vmaxpu=1.05 Daily=LoadShapeLoadDefault
New load.S164P Bus=164.1 Phases=1 Model=1 kV=0.24 kW=0.746 kVAr=0.249 Vminpu=0.95 Vmaxpu=1.05 Daily=LoadShapeLoadDefault
New load.S172P Bus=172.1 Phases=1 Model=1 kV=0.24 kW=1.269 kVAr=0.423 Vminpu=0.95 Vmaxpu=1.05 Daily=LoadShapeLoadDefault
New load.S173P Bus=173.1 Phases=1 Model=1 kV=0.24 kW=0.89 kVAr=0.297 Vminpu=0.95 Vmaxpu=1.05 Daily=LoadShapeLoadDefault
New load.S174P Bus=174.1 Phases=1 Model=1 kV=0.24 kW=1.491 kVAr=0.497 Vminpu=0.95 Vmaxpu=1.05 Daily=LoadShapeLoadDefault
New load.S175P Bus=175.1 Phases=1 Model=1 kV=0.24 kW=1.448 kVAr=0.483 Vminpu=0.95 Vmaxpu=1.05 Daily=LoadShapeLoadDefault
New load.S176P Bus=176.1 Phases=1 Model=1 kV=0.24 kW=0.828 kVAr=0.276 Vminpu=0.95 Vmaxpu=1.05 Daily=LoadShapeLoadDefault
New load.S177P Bus=177.1 Phases=1 Model=1 kV=0.24 kW=0.655 kVAr=0.218 Vminpu=0.95 Vmaxpu=1.05 Daily=LoadShapeLoadDefault
New load.S178P Bus=178.1 Phases=1 Model=1 kV=0.24 kW=0.637 kVAr=0.212 Vminpu=0.95 Vmaxpu=1.05 Daily=LoadShapeLoadDefault
New load.S179P Bus=179.1 Phases=1 Model=1 kV=0.24 kW=0.842 kVAr=0.281 Vminpu=0.95 Vmaxpu=1.05 Daily=LoadShapeLoadDefault
New load.S180P Bus=180.1 Phases=1 Model=1 kV=0.24 kW=1.145 kVAr=0.382 Vminpu=0.95 Vmaxpu=1.05 Daily=LoadShapeLoadDefault
New load.S181P Bus=181.1 Phases=1 Model=1 kV=0.24 kW=0.817 kVAr=0.272 Vminpu=0.95 Vmaxpu=1.05 Daily=LoadShapeLoadDefault
New load.S182P Bus=182.1 Phases=1 Model=1 kV=0.24 kW=0.928 kVAr=0.309 Vminpu=0.95 Vmaxpu=1.05 Daily=LoadShapeLoadDefault
New load.S183P Bus=183.1 Phases=1 Model=1 kV=0.24 kW=1.193 kVAr=0.398 Vminpu=0.95 Vmaxpu=1.05 Daily=LoadShapeLoadDefault
New load.S189P Bus=189.1 Phases=1 Model=1 kV=0.24 kW=0.777 kVAr=0.259 Vminpu=0.95 Vmaxpu=1.05 Daily=LoadShapeLoadDefault
New load.S190P Bus=190.1 Phases=1 Model=1 kV=0.24 kW=1.355 kVAr=0.452 Vminpu=0.95 Vmaxpu=1.05 Daily=LoadShapeLoadDefault
New load.S191P Bus=191.1 Phases=1 Model=1 kV=0.24 kW=0.936 kVAr=0.312 Vminpu=0.95 Vmaxpu=1.05 Daily=LoadShapeLoadDefault
New load.S192P Bus=192.1 Phases=1 Model=1 kV=0.24 kW=1.222 kVAr=0.407 Vminpu=0.95 Vmaxpu=1.05 Daily=LoadShapeLoadDefault
New load.S193P Bus=193.1 Phases=1 Model=1 kV=0.24 kW=1.83 kVAr=0.61 Vminpu=0.95 Vmaxpu=1.05 Daily=LoadShapeLoadDefault
New load.S194P Bus=194.1 Phases=1 Model=1 kV=0.24 kW=2.224 kVAr=0.741 Vminpu=0.95 Vmaxpu=1.05 Daily=LoadShapeLoadDefault
New load.S195P Bus=195.1 Phases=1 Model=1 kV=0.24 kW=2.01 kVAr=0.67 Vminpu=0.95 Vmaxpu=1.05 Daily=LoadShapeLoadDefault
New load.S196P Bus=196.1 Phases=1 Model=1 kV=0.24 kW=2.062 kVAr=0.687 Vminpu=0.95 Vmaxpu=1.05 Daily=LoadShapeLoadDefault
New load.S202P Bus=202.1 Phases=1 Model=1 kV=0.24 kW=2.19 kVAr=0.73 Vminpu=0.95 Vmaxpu=1.05 Daily=LoadShapeLoadDefault
New load.S203P Bus=203.1 Phases=1 Model=1 kV=0.24 kW=1.546 kVAr=0.515 Vminpu=0.95 Vmaxpu=1.05 Daily=LoadShapeLoadDefault
New load.S204P Bus=204.1 Phases=1 Model=1 kV=0.24 kW=1.869 kVAr=0.623 Vminpu=0.95 Vmaxpu=1.05 Daily=LoadShapeLoadDefault
New load.S205P Bus=205.1 Phases=1 Model=1 kV=0.24 kW=1.836 kVAr=0.612 Vminpu=0.95 Vmaxpu=1.05 Daily=LoadShapeLoadDefault
New load.S206P Bus=206.1 Phases=1 Model=1 kV=0.24 kW=2.157 kVAr=0.719 Vminpu=0.95 Vmaxpu=1.05 Daily=LoadShapeLoadDefault
New load.S207P Bus=207.1 Phases=1 Model=1 kV=0.24 kW=3.989 kVAr=1.33 Vminpu=0.95 Vmaxpu=1.05 Daily=LoadShapeLoadDefault
New load.S208P Bus=208.1 Phases=1 Model=1 kV=0.24 kW=1.725 kVAr=0.575 Vminpu=0.95 Vmaxpu=1.05 Daily=LoadShapeLoadDefault
New load.S209P Bus=209.1 Phases=1 Model=1 kV=0.24 kW=2.909 kVAr=0.97 Vminpu=0.95 Vmaxpu=1.05 Daily=LoadShapeLoadDefault
New load.S214P Bus=214.1 Phases=1 Model=1 kV=0.24 kW=1.315 kVAr=0.438 Vminpu=0.95 Vmaxpu=1.05 Daily=LoadShapeLoadDefault
New load.S215P Bus=215.1 Phases=1 Model=1 kV=0.24 kW=2.352 kVAr=0.784 Vminpu=0.95 Vmaxpu=1.05 Daily=LoadShapeLoadDefault
New load.S216P Bus=216.1 Phases=1 Model=1 kV=0.24 kW=2.155 kVAr=0.718 Vminpu=0.95 Vmaxpu=1.05 Daily=LoadShapeLoadDefault
New load.S217P Bus=217.1 Phases=1 Model=1 kV=0.24 kW=1.447 kVAr=0.482 Vminpu=0.95 Vmaxpu=1.05 Daily=LoadShapeLoadDefault
New load.S218P Bus=218.1 Phases=1 Model=1 kV=0.24 kW=2.026 kVAr=0.675 Vminpu=0.95 Vmaxpu=1.05 Daily=LoadShapeLoadDefault
New load.S219P Bus=219.1 Phases=1 Model=1 kV=0.24 kW=4.134 kVAr=1.378 Vminpu=0.95 Vmaxpu=1.05 Daily=LoadShapeLoadDefault
New load.S225P Bus=225.1 Phases=1 Model=1 kV=0.24 kW=3.099 kVAr=1.033 Vminpu=0.95 Vmaxpu=1.05 Daily=LoadShapeLoadDefault
New load.S226P Bus=226.1 Phases=1 Model=1 kV=0.24 kW=2.273 kVAr=0.758 Vminpu=0.95 Vmaxpu=1.05 Daily=LoadShapeLoadDefault
New load.S227P Bus=227.1 Phases=1 Model=1 kV=0.24 kW=1.443 kVAr=0.481 Vminpu=0.95 Vmaxpu=1.05 Daily=LoadShapeLoadDefault
New load.S228P Bus=228.1 Phases=1 Model=1 kV=0.24 kW=2.951 kVAr=0.984 Vminpu=0.95 Vmaxpu=1.05 Daily=LoadShapeLoadDefault
New load.S229P Bus=229.1 Phases=1 Model=1 kV=0.24 kW=3.967 kVAr=1.322 Vminpu=0.95 Vmaxpu=1.05 Daily=LoadShapeLoadDefault
New load.S230P Bus=230.1 Phases=1 Model=1 kV=0.24 kW=1.409 kVAr=0.47 Vminpu=0.95 Vmaxpu=1.05 Daily=LoadShapeLoadDefault
New load.S231P Bus=231.1 Phases=1 Model=1 kV=0.24 kW=2.062 kVAr=0.687 Vminpu=0.95 Vmaxpu=1.05 Daily=LoadShapeLoadDefault
New load.S232P Bus=232.1 Phases=1 Model=1 kV=0.24 kW=3.031 kVAr=1.01 Vminpu=0.95 Vmaxpu=1.05 Daily=LoadShapeLoadDefault
New load.S238P Bus=238.1 Phases=1 Model=1 kV=0.24 kW=2.664 kVAr=0.888 Vminpu=0.95 Vmaxpu=1.05 Daily=LoadShapeLoadDefault
New load.S239P Bus=239.1 Phases=1 Model=1 kV=0.24 kW=1.466 kVAr=0.489 Vminpu=0.95 Vmaxpu=1.05 Daily=LoadShapeLoadDefault
New load.S240P Bus=240.1 Phases=1 Model=1 kV=0.24 kW=2.223 kVAr=0.741 Vminpu=0.95 Vmaxpu=1.05 Daily=LoadShapeLoadDefault
New load.S241P Bus=241.1 Phases=1 Model=1 kV=0.24 kW=2.079 kVAr=0.693 Vminpu=0.95 Vmaxpu=1.05 Daily=LoadShapeLoadDefault
New load.S242P Bus=242.1 Phases=1 Model=1 kV=0.24 kW=1.315 kVAr=0.438 Vminpu=0.95 Vmaxpu=1.05 Daily=LoadShapeLoadDefault
New load.S243P Bus=243.1 Phases=1 Model=1 kV=0.24 kW=2.177 kVAr=0.726 Vminpu=0.95 Vmaxpu=1.05 Daily=LoadShapeLoadDefault
New load.S244P Bus=244.1 Phases=1 Model=1 kV=0.24 kW=2.777 kVAr=0.926 Vminpu=0.95 Vmaxpu=1.05 Daily=LoadShapeLoadDefault
New load.S245P Bus=245.1 Phases=1 Model=1 kV=0.24 kW=1.486 kVAr=0.495 Vminpu=0.95 Vmaxpu=1.05 Daily=LoadShapeLoadDefault
New load.S253P Bus=253.1 Phases=1 Model=1 kV=0.24 kW=1.411 kVAr=0.47 Vminpu=0.95 Vmaxpu=1.05 Daily=LoadShapeLoadDefault
New load.S254P Bus=254.1 Phases=1 Model=1 kV=0.24 kW=1.386 kVAr=0.462 Vminpu=0.95 Vmaxpu=1.05 Daily=LoadShapeLoadDefault
New load.S255P Bus=255.1 Phases=1 Model=1 kV=0.24 kW=1.289 kVAr=0.43 Vminpu=0.95 Vmaxpu=1.05 Daily=LoadShapeLoadDefault
New load.S256P Bus=256.1 Phases=1 Model=1 kV=0.24 kW=1.287 kVAr=0.429 Vminpu=0.95 Vmaxpu=1.05 Daily=LoadShapeLoadDefault
New load.S257P Bus=257.1 Phases=1 Model=1 kV=0.24 kW=1.98 kVAr=0.66 Vminpu=0.95 Vmaxpu=1.05 Daily=LoadShapeLoadDefault
New load.S258P Bus=258.1 Phases=1 Model=1 kV=0.24 kW=3.423 kVAr=1.141 Vminpu=0.95 Vmaxpu=1.05 Daily=LoadShapeLoadDefault
New load.S259P Bus=259.1 Phases=1 Model=1 kV=0.24 kW=2.317 kVAr=0.772 Vminpu=0.95 Vmaxpu=1.05 Daily=LoadShapeLoadDefault
New load.S260P Bus=260.1 Phases=1 Model=1 kV=0.24 kW=3.367 kVAr=1.122 Vminpu=0.95 Vmaxpu=1.05 Daily=LoadShapeLoadDefault
New load.S261P Bus=261.1 Phases=1 Model=1 kV=0.24 kW=2.302 kVAr=0.767 Vminpu=0.95 Vmaxpu=1.05 Daily=LoadShapeLoadDefault
New load.S262P Bus=262.1 Phases=1 Model=1 kV=0.24 kW=1.767 kVAr=0.589 Vminpu=0.95 Vmaxpu=1.05 Daily=LoadShapeLoadDefault
New load.S263P Bus=263.1 Phases=1 Model=1 kV=0.24 kW=1.389 kVAr=0.463 Vminpu=0.95 Vmaxpu=1.05 Daily=LoadShapeLoadDefault
New load.S264P Bus=264.1 Phases=1 Model=1 kV=0.24 kW=2.039 kVAr=0.68 Vminpu=0.95 Vmaxpu=1.05 Daily=LoadShapeLoadDefault
New load.S270P Bus=270.1 Phases=1 Model=1 kV=0.24 kW=3.28 kVAr=1.093 Vminpu=0.95 Vmaxpu=1.05 Daily=LoadShapeLoadDefault
New load.S271P Bus=271.1 Phases=1 Model=1 kV=0.24 kW=1.386 kVAr=0.462 Vminpu=0.95 Vmaxpu=1.05 Daily=LoadShapeLoadDefault
New load.S272P Bus=272.1 Phases=1 Model=1 kV=0.24 kW=1.575 kVAr=0.525 Vminpu=0.95 Vmaxpu=1.05 Daily=LoadShapeLoadDefault
New load.S273P Bus=273.1 Phases=1 Model=1 kV=0.24 kW=2.089 kVAr=0.696 Vminpu=0.95 Vmaxpu=1.05 Daily=LoadShapeLoadDefault
New load.S274P Bus=274.1 Phases=1 Model=1 kV=0.24 kW=3.388 kVAr=1.129 Vminpu=0.95 Vmaxpu=1.05 Daily=LoadShapeLoadDefault
New load.S275P Bus=275.1 Phases=1 Model=1 kV=0.24 kW=2.01 kVAr=0.67 Vminpu=0.95 Vmaxpu=1.05 Daily=LoadShapeLoadDefault
New load.S276P Bus=276.1 Phases=1 Model=1 kV=0.24 kW=2.254 kVAr=0.751 Vminpu=0.95 Vmaxpu=1.05 Daily=LoadShapeLoadDefault
New load.S277P Bus=277.1 Phases=1 Model=1 kV=0.24 kW=3.06 kVAr=1.02 Vminpu=0.95 Vmaxpu=1.05 Daily=LoadShapeLoadDefault
New load.S283P Bus=283.1 Phases=1 Model=1 kV=0.24 kW=2.319 kVAr=0.773 Vminpu=0.95 Vmaxpu=1.05 Daily=LoadShapeLoadDefault
New load.S284P Bus=284.1 Phases=1 Model=1 kV=0.24 kW=1.28 kVAr=0.427 Vminpu=0.95 Vmaxpu=1.05 Daily=LoadShapeLoadDefault
New load.S285P Bus=285.1 Phases=1 Model=1 kV=0.24 kW=1.786 kVAr=0.595 Vminpu=0.95 Vmaxpu=1.05 Daily=LoadShapeLoadDefault
New load.S286P Bus=286.1 Phases=1 Model=1 kV=0.24 kW=1.815 kVAr=0.605 Vminpu=0.95 Vmaxpu=1.05 Daily=LoadShapeLoadDefault
New load.S287P Bus=287.1 Phases=1 Model=1 kV=0.24 kW=1.378 kVAr=0.459 Vminpu=0.95 Vmaxpu=1.05 Daily=LoadShapeLoadDefault
New load.S288P Bus=288.1 Phases=1 Model=1 kV=0.24 kW=2.419 kVAr=0.806 Vminpu=0.95 Vmaxpu=1.05 Daily=LoadShapeLoadDefault
New load.S289P Bus=289.1 Phases=1 Model=1 kV=0.24 kW=2.786 kVAr=0.929 Vminpu=0.95 Vmaxpu=1.05 Daily=LoadShapeLoadDefault
New load.S290P Bus=290.1 Phases=1 Model=1 kV=0.24 kW=1.83 kVAr=0.61 Vminpu=0.95 Vmaxpu=1.05 Daily=LoadShapeLoadDefault
New load.S296P Bus=296.1 Phases=1 Model=1 kV=0.24 kW=1.586 kVAr=0.529 Vminpu=0.95 Vmaxpu=1.05 Daily=LoadShapeLoadDefault
New load.S297P Bus=297.1 Phases=1 Model=1 kV=0.24 kW=2.301 kVAr=0.767 Vminpu=0.95 Vmaxpu=1.05 Daily=LoadShapeLoadDefault
New load.S298P Bus=298.1 Phases=1 Model=1 kV=0.24 kW=2.391 kVAr=0.797 Vminpu=0.95 Vmaxpu=1.05 Daily=LoadShapeLoadDefault
New load.S299P Bus=299.1 Phases=1 Model=1 kV=0.24 kW=2.272 kVAr=0.757 Vminpu=0.95 Vmaxpu=1.05 Daily=LoadShapeLoadDefault
New load.S300P Bus=300.1 Phases=1 Model=1 kV=0.24 kW=2.189 kVAr=0.73 Vminpu=0.95 Vmaxpu=1.05 Daily=LoadShapeLoadDefault
New load.S301P Bus=301.1 Phases=1 Model=1 kV=0.24 kW=2.541 kVAr=0.847 Vminpu=0.95 Vmaxpu=1.05 Daily=LoadShapeLoadDefault
New load.S302P Bus=302.1 Phases=1 Model=1 kV=0.24 kW=2.664 kVAr=0.888 Vminpu=0.95 Vmaxpu=1.05 Daily=LoadShapeLoadDefault
New load.S303P Bus=303.1 Phases=1 Model=1 kV=0.24 kW=2.231 kVAr=0.744 Vminpu=0.95 Vmaxpu=1.05 Daily=LoadShapeLoadDefault
New load.S310P Bus=310.1 Phases=1 Model=1 kV=0.24 kW=1.753 kVAr=0.584 Vminpu=0.95 Vmaxpu=1.05 Daily=LoadShapeLoadDefault
New load.S311P Bus=311.1 Phases=1 Model=1 kV=0.24 kW=2.32 kVAr=0.773 Vminpu=0.95 Vmaxpu=1.05 Daily=LoadShapeLoadDefault
New load.S312P Bus=312.1 Phases=1 Model=1 kV=0.24 kW=2.793 kVAr=0.931 Vminpu=0.95 Vmaxpu=1.05 Daily=LoadShapeLoadDefault
New load.S313P Bus=313.1 Phases=1 Model=1 kV=0.24 kW=2.536 kVAr=0.845 Vminpu=0.95 Vmaxpu=1.05 Daily=LoadShapeLoadDefault
New load.S314P Bus=314.1 Phases=1 Model=1 kV=0.24 kW=3.724 kVAr=1.241 Vminpu=0.95 Vmaxpu=1.05 Daily=LoadShapeLoadDefault
New load.S315P Bus=315.1 Phases=1 Model=1 kV=0.24 kW=1.331 kVAr=0.444 Vminpu=0.95 Vmaxpu=1.05 Daily=LoadShapeLoadDefault
New load.S316P Bus=316.1 Phases=1 Model=1 kV=0.24 kW=1.379 kVAr=0.46 Vminpu=0.95 Vmaxpu=1.05 Daily=LoadShapeLoadDefault
New load.S317P Bus=317.1 Phases=1 Model=1 kV=0.24 kW=1.401 kVAr=0.467 Vminpu=0.95 Vmaxpu=1.05 Daily=LoadShapeLoadDefault
New load.S318P Bus=318.1 Phases=1 Model=1 kV=0.24 kW=4.182 kVAr=1.394 Vminpu=0.95 Vmaxpu=1.05 Daily=LoadShapeLoadDefault
New load.S319P Bus=319.1 Phases=1 Model=1 kV=0.24 kW=1.389 kVAr=0.463 Vminpu=0.95 Vmaxpu=1.05 Daily=LoadShapeLoadDefault
New load.S326P Bus=326.1 Phases=1 Model=1 kV=0.24 kW=1.97 kVAr=0.657 Vminpu=0.95 Vmaxpu=1.05 Daily=LoadShapeLoadDefault
New load.S327P Bus=327.1 Phases=1 Model=1 kV=0.24 kW=2.206 kVAr=0.735 Vminpu=0.95 Vmaxpu=1.05 Daily=LoadShapeLoadDefault
New load.S328P Bus=328.1 Phases=1 Model=1 kV=0.24 kW=1.269 kVAr=0.423 Vminpu=0.95 Vmaxpu=1.05 Daily=LoadShapeLoadDefault
New load.S329P Bus=329.1 Phases=1 Model=1 kV=0.24 kW=1.243 kVAr=0.414 Vminpu=0.95 Vmaxpu=1.05 Daily=LoadShapeLoadDefault
New load.S330P Bus=330.1 Phases=1 Model=1 kV=0.24 kW=2.621 kVAr=0.874 Vminpu=0.95 Vmaxpu=1.05 Daily=LoadShapeLoadDefault
New load.S331P Bus=331.1 Phases=1 Model=1 kV=0.24 kW=1.432 kVAr=0.477 Vminpu=0.95 Vmaxpu=1.05 Daily=LoadShapeLoadDefault
New load.S332P Bus=332.1 Phases=1 Model=1 kV=0.24 kW=2.155 kVAr=0.718 Vminpu=0.95 Vmaxpu=1.05 Daily=LoadShapeLoadDefault
New load.S333P Bus=333.1 Phases=1 Model=1 kV=0.24 kW=2.733 kVAr=0.911 Vminpu=0.95 Vmaxpu=1.05 Daily=LoadShapeLoadDefault
New load.S334P Bus=334.1 Phases=1 Model=1 kV=0.24 kW=3.823 kVAr=1.274 Vminpu=0.95 Vmaxpu=1.05 Daily=LoadShapeLoadDefault
New load.S335P Bus=335.1 Phases=1 Model=1 kV=0.24 kW=1.511 kVAr=0.504 Vminpu=0.95 Vmaxpu=1.05 Daily=LoadShapeLoadDefault
New load.S342P Bus=342.1 Phases=1 Model=1 kV=0.24 kW=2.559 kVAr=0.853 Vminpu=0.95 Vmaxpu=1.05 Daily=LoadShapeLoadDefault
New load.S343P Bus=343.1 Phases=1 Model=1 kV=0.24 kW=1.754 kVAr=0.585 Vminpu=0.95 Vmaxpu=1.05 Daily=LoadShapeLoadDefault
New load.S344P Bus=344.1 Phases=1 Model=1 kV=0.24 kW=1.742 kVAr=0.581 Vminpu=0.95 Vmaxpu=1.05 Daily=LoadShapeLoadDefault
New load.S345P Bus=345.1 Phases=1 Model=1 kV=0.24 kW=1.84 kVAr=0.613 Vminpu=0.95 Vmaxpu=1.05 Daily=LoadShapeLoadDefault
New load.S346P Bus=346.1 Phases=1 Model=1 kV=0.24 kW=2.172 kVAr=0.724 Vminpu=0.95 Vmaxpu=1.05 Daily=LoadShapeLoadDefault
New load.S347P Bus=347.1 Phases=1 Model=1 kV=0.24 kW=3.109 kVAr=1.036 Vminpu=0.95 Vmaxpu=1.05 Daily=LoadShapeLoadDefault
New load.S348P Bus=348.1 Phases=1 Model=1 kV=0.24 kW=1.279 kVAr=0.426 Vminpu=0.95 Vmaxpu=1.05 Daily=LoadShapeLoadDefault
New load.S349P Bus=349.1 Phases=1 Model=1 kV=0.24 kW=1.563 kVAr=0.521 Vminpu=0.95 Vmaxpu=1.05 Daily=LoadShapeLoadDefault
New load.S350P Bus=350.1 Phases=1 Model=1 kV=0.24 kW=2.528 kVAr=0.843 Vminpu=0.95 Vmaxpu=1.05 Daily=LoadShapeLoadDefault
New load.S351P Bus=351.1 Phases=1 Model=1 kV=0.24 kW=2.072 kVAr=0.691 Vminpu=0.95 Vmaxpu=1.05 Daily=LoadShapeLoadDefault
New load.S358P Bus=358.1 Phases=1 Model=1 kV=0.24 kW=2.523 kVAr=0.841 Vminpu=0.95 Vmaxpu=1.05 Daily=LoadShapeLoadDefault
New load.S359P Bus=359.1 Phases=1 Model=1 kV=0.24 kW=1.693 kVAr=0.564 Vminpu=0.95 Vmaxpu=1.05 Daily=LoadShapeLoadDefault
New load.S360P Bus=360.1 Phases=1 Model=1 kV=0.24 kW=3.222 kVAr=1.074 Vminpu=0.95 Vmaxpu=1.05 Daily=LoadShapeLoadDefault
New load.S361P Bus=361.1 Phases=1 Model=1 kV=0.24 kW=2.881 kVAr=0.96 Vminpu=0.95 Vmaxpu=1.05 Daily=LoadShapeLoadDefault
New load.S362P Bus=362.1 Phases=1 Model=1 kV=0.24 kW=1.79 kVAr=0.597 Vminpu=0.95 Vmaxpu=1.05 Daily=LoadShapeLoadDefault
New load.S363P Bus=363.1 Phases=1 Model=1 kV=0.24 kW=1.822 kVAr=0.607 Vminpu=0.95 Vmaxpu=1.05 Daily=LoadShapeLoadDefault
New load.S364P Bus=364.1 Phases=1 Model=1 kV=0.24 kW=2.363 kVAr=0.788 Vminpu=0.95 Vmaxpu=1.05 Daily=LoadShapeLoadDefault
New load.S365P Bus=365.1 Phases=1 Model=1 kV=0.24 kW=1.876 kVAr=0.625 Vminpu=0.95 Vmaxpu=1.05 Daily=LoadShapeLoadDefault
New load.S366P Bus=366.1 Phases=1 Model=1 kV=0.24 kW=2.774 kVAr=0.925 Vminpu=0.95 Vmaxpu=1.05 Daily=LoadShapeLoadDefault
New load.S367P Bus=367.1 Phases=1 Model=1 kV=0.24 kW=1.932 kVAr=0.644 Vminpu=0.95 Vmaxpu=1.05 Daily=LoadShapeLoadDefault
New load.S374P Bus=374.1 Phases=1 Model=1 kV=0.24 kW=2.815 kVAr=0.938 Vminpu=0.95 Vmaxpu=1.05 Daily=LoadShapeLoadDefault
New load.S375P Bus=375.1 Phases=1 Model=1 kV=0.24 kW=3.999 kVAr=1.333 Vminpu=0.95 Vmaxpu=1.05 Daily=LoadShapeLoadDefault
New load.S376P Bus=376.1 Phases=1 Model=1 kV=0.24 kW=8.499 kVAr=2.833 Vminpu=0.95 Vmaxpu=1.05 Daily=LoadShapeLoadDefault
New load.S377P Bus=377.1 Phases=1 Model=1 kV=0.24 kW=4.579 kVAr=1.526 Vminpu=0.95 Vmaxpu=1.05 Daily=LoadShapeLoadDefault
New load.S378P Bus=378.1 Phases=1 Model=1 kV=0.24 kW=4.416 kVAr=1.472 Vminpu=0.95 Vmaxpu=1.05 Daily=LoadShapeLoadDefault
New load.S379P Bus=379.1 Phases=1 Model=1 kV=0.24 kW=7.016 kVAr=2.339 Vminpu=0.95 Vmaxpu=1.05 Daily=LoadShapeLoadDefault
New load.S380P Bus=380.1 Phases=1 Model=1 kV=0.24 kW=5.175 kVAr=1.725 Vminpu=0.95 Vmaxpu=1.05 Daily=LoadShapeLoadDefault
New load.S381P Bus=381.1 Phases=1 Model=1 kV=0.24 kW=1.815 kVAr=0.605 Vminpu=0.95 Vmaxpu=1.05 Daily=LoadShapeLoadDefault
New load.S382P Bus=382.1 Phases=1 Model=1 kV=0.24 kW=1.859 kVAr=0.62 Vminpu=0.95 Vmaxpu=1.05 Daily=LoadShapeLoadDefault
New load.S383P Bus=383.1 Phases=1 Model=1 kV=0.24 kW=1.897 kVAr=0.632 Vminpu=0.95 Vmaxpu=1.05 Daily=LoadShapeLoadDefault
New load.S390P Bus=390.1 Phases=1 Model=1 kV=0.24 kW=2.638 kVAr=0.879 Vminpu=0.95 Vmaxpu=1.05 Daily=LoadShapeLoadDefault
New load.S391P Bus=391.1 Phases=1 Model=1 kV=0.24 kW=7.227 kVAr=2.409 Vminpu=0.95 Vmaxpu=1.05 Daily=LoadShapeLoadDefault
New load.S392P Bus=392.1 Phases=1 Model=1 kV=0.24 kW=1.685 kVAr=0.562 Vminpu=0.95 Vmaxpu=1.05 Daily=LoadShapeLoadDefault
New load.S393P Bus=393.1 Phases=1 Model=1 kV=0.24 kW=4.78 kVAr=1.593 Vminpu=0.95 Vmaxpu=1.05 Daily=LoadShapeLoadDefault
New load.S394P Bus=394.1 Phases=1 Model=1 kV=0.24 kW=4.217 kVAr=1.406 Vminpu=0.95 Vmaxpu=1.05 Daily=LoadShapeLoadDefault
New load.S395P Bus=395.1 Phases=1 Model=1 kV=0.24 kW=3.287 kVAr=1.096 Vminpu=0.95 Vmaxpu=1.05 Daily=LoadShapeLoadDefault
New load.S396P Bus=396.1 Phases=1 Model=1 kV=0.24 kW=4.081 kVAr=1.36 Vminpu=0.95 Vmaxpu=1.05 Daily=LoadShapeLoadDefault
New load.S397P Bus=397.1 Phases=1 Model=1 kV=0.24 kW=4.414 kVAr=1.471 Vminpu=0.95 Vmaxpu=1.05 Daily=LoadShapeLoadDefault
New load.S398P Bus=398.1 Phases=1 Model=1 kV=0.24 kW=2.545 kVAr=0.848 Vminpu=0.95 Vmaxpu=1.05 Daily=LoadShapeLoadDefault
New load.S399P Bus=399.1 Phases=1 Model=1 kV=0.24 kW=3.392 kVAr=1.131 Vminpu=0.95 Vmaxpu=1.05 Daily=LoadShapeLoadDefault
New load.S407P Bus=407.1 Phases=1 Model=1 kV=0.24 kW=2.171 kVAr=0.724 Vminpu=0.95 Vmaxpu=1.05 Daily=LoadShapeLoadDefault
New load.S408P Bus=408.1 Phases=1 Model=1 kV=0.24 kW=2.163 kVAr=0.721 Vminpu=0.95 Vmaxpu=1.05 Daily=LoadShapeLoadDefault
New load.S409P Bus=409.1 Phases=1 Model=1 kV=0.24 kW=1.374 kVAr=0.458 Vminpu=0.95 Vmaxpu=1.05 Daily=LoadShapeLoadDefault
New load.S410P Bus=410.1 Phases=1 Model=1 kV=0.24 kW=1.223 kVAr=0.408 Vminpu=0.95 Vmaxpu=1.05 Daily=LoadShapeLoadDefault
New load.S411P Bus=411.1 Phases=1 Model=1 kV=0.24 kW=1.108 kVAr=0.369 Vminpu=0.95 Vmaxpu=1.05 Daily=LoadShapeLoadDefault
New load.S412P Bus=412.1 Phases=1 Model=1 kV=0.24 kW=1.323 kVAr=0.441 Vminpu=0.95 Vmaxpu=1.05 Daily=LoadShapeLoadDefault
New load.S413P Bus=413.1 Phases=1 Model=1 kV=0.24 kW=1.024 kVAr=0.341 Vminpu=0.95 Vmaxpu=1.05 Daily=LoadShapeLoadDefault
New load.S414P Bus=414.1 Phases=1 Model=1 kV=0.24 kW=1.131 kVAr=0.377 Vminpu=0.95 Vmaxpu=1.05 Daily=LoadShapeLoadDefault
New load.S415P Bus=415.1 Phases=1 Model=1 kV=0.24 kW=0.74 kVAr=0.247 Vminpu=0.95 Vmaxpu=1.05 Daily=LoadShapeLoadDefault
New load.S416P Bus=416.1 Phases=1 Model=1 kV=0.24 kW=0.897 kVAr=0.299 Vminpu=0.95 Vmaxpu=1.05 Daily=LoadShapeLoadDefault
New load.S417P Bus=417.1 Phases=1 Model=1 kV=0.24 kW=1.671 kVAr=0.557 Vminpu=0.95 Vmaxpu=1.05 Daily=LoadShapeLoadDefault
New load.S418P Bus=418.1 Phases=1 Model=1 kV=0.24 kW=1.221 kVAr=0.407 Vminpu=0.95 Vmaxpu=1.05 Daily=LoadShapeLoadDefault
New load.S426P Bus=426.1 Phases=1 Model=1 kV=0.24 kW=0.977 kVAr=0.326 Vminpu=0.95 Vmaxpu=1.05 Daily=LoadShapeLoadDefault
New load.S427P Bus=427.1 Phases=1 Model=1 kV=0.24 kW=1.074 kVAr=0.358 Vminpu=0.95 Vmaxpu=1.05 Daily=LoadShapeLoadDefault
New load.S428P Bus=428.1 Phases=1 Model=1 kV=0.24 kW=1.027 kVAr=0.342 Vminpu=0.95 Vmaxpu=1.05 Daily=LoadShapeLoadDefault
New load.S429P Bus=429.1 Phases=1 Model=1 kV=0.24 kW=0.867 kVAr=0.289 Vminpu=0.95 Vmaxpu=1.05 Daily=LoadShapeLoadDefault
New load.S430P Bus=430.1 Phases=1 Model=1 kV=0.24 kW=1.305 kVAr=0.435 Vminpu=0.95 Vmaxpu=1.05 Daily=LoadShapeLoadDefault
New load.S431P Bus=431.1 Phases=1 Model=1 kV=0.24 kW=1.521 kVAr=0.507 Vminpu=0.95 Vmaxpu=1.05 Daily=LoadShapeLoadDefault
New load.S432P Bus=432.1 Phases=1 Model=1 kV=0.24 kW=1.79 kVAr=0.597 Vminpu=0.95 Vmaxpu=1.05 Daily=LoadShapeLoadDefault
New load.S433P Bus=433.1 Phases=1 Model=1 kV=0.24 kW=1.269 kVAr=0.423 Vminpu=0.95 Vmaxpu=1.05 Daily=LoadShapeLoadDefault
New load.S434P Bus=434.1 Phases=1 Model=1 kV=0.24 kW=0.857 kVAr=0.286 Vminpu=0.95 Vmaxpu=1.05 Daily=LoadShapeLoadDefault
New load.S435P Bus=435.1 Phases=1 Model=1 kV=0.24 kW=1.616 kVAr=0.539 Vminpu=0.95 Vmaxpu=1.05 Daily=LoadShapeLoadDefault
New load.S436P Bus=436.1 Phases=1 Model=1 kV=0.24 kW=0.905 kVAr=0.302 Vminpu=0.95 Vmaxpu=1.05 Daily=LoadShapeLoadDefault
New load.S437P Bus=437.1 Phases=1 Model=1 kV=0.24 kW=0.947 kVAr=0.316 Vminpu=0.95 Vmaxpu=1.05 Daily=LoadShapeLoadDefault
New load.S445P Bus=445.1 Phases=1 Model=1 kV=0.24 kW=1.499 kVAr=0.5 Vminpu=0.95 Vmaxpu=1.05 Daily=LoadShapeLoadDefault
New load.S446P Bus=446.1 Phases=1 Model=1 kV=0.24 kW=0.981 kVAr=0.327 Vminpu=0.95 Vmaxpu=1.05 Daily=LoadShapeLoadDefault
New load.S447P Bus=447.1 Phases=1 Model=1 kV=0.24 kW=1.631 kVAr=0.544 Vminpu=0.95 Vmaxpu=1.05 Daily=LoadShapeLoadDefault
New load.S448P Bus=448.1 Phases=1 Model=1 kV=0.24 kW=1.703 kVAr=0.568 Vminpu=0.95 Vmaxpu=1.05 Daily=LoadShapeLoadDefault
New load.S449P Bus=449.1 Phases=1 Model=1 kV=0.24 kW=1.449 kVAr=0.483 Vminpu=0.95 Vmaxpu=1.05 Daily=LoadShapeLoadDefault
New load.S450P Bus=450.1 Phases=1 Model=1 kV=0.24 kW=1.017 kVAr=0.339 Vminpu=0.95 Vmaxpu=1.05 Daily=LoadShapeLoadDefault
New load.S451P Bus=451.1 Phases=1 Model=1 kV=0.24 kW=1.486 kVAr=0.495 Vminpu=0.95 Vmaxpu=1.05 Daily=LoadShapeLoadDefault
New load.S452P Bus=452.1 Phases=1 Model=1 kV=0.24 kW=1.247 kVAr=0.416 Vminpu=0.95 Vmaxpu=1.05 Daily=LoadShapeLoadDefault
New load.S453P Bus=453.1 Phases=1 Model=1 kV=0.24 kW=0.935 kVAr=0.312 Vminpu=0.95 Vmaxpu=1.05 Daily=LoadShapeLoadDefault
New load.S454P Bus=454.1 Phases=1 Model=1 kV=0.24 kW=1.052 kVAr=0.351 Vminpu=0.95 Vmaxpu=1.05 Daily=LoadShapeLoadDefault
New load.S455P Bus=455.1 Phases=1 Model=1 kV=0.24 kW=1.586 kVAr=0.529 Vminpu=0.95 Vmaxpu=1.05 Daily=LoadShapeLoadDefault
New load.S456P Bus=456.1 Phases=1 Model=1 kV=0.24 kW=1.422 kVAr=0.474 Vminpu=0.95 Vmaxpu=1.05 Daily=LoadShapeLoadDefault
New load.S464P Bus=464.1 Phases=1 Model=1 kV=0.24 kW=1.346 kVAr=0.449 Vminpu=0.95 Vmaxpu=1.05 Daily=LoadShapeLoadDefault
New load.S465P Bus=465.1 Phases=1 Model=1 kV=0.24 kW=1.431 kVAr=0.477 Vminpu=0.95 Vmaxpu=1.05 Daily=LoadShapeLoadDefault
New load.S466P Bus=466.1 Phases=1 Model=1 kV=0.24 kW=1.52 kVAr=0.507 Vminpu=0.95 Vmaxpu=1.05 Daily=LoadShapeLoadDefault
New load.S467P Bus=467.1 Phases=1 Model=1 kV=0.24 kW=1.6 kVAr=0.533 Vminpu=0.95 Vmaxpu=1.05 Daily=LoadShapeLoadDefault
New load.S468P Bus=468.1 Phases=1 Model=1 kV=0.24 kW=1.196 kVAr=0.399 Vminpu=0.95 Vmaxpu=1.05 Daily=LoadShapeLoadDefault
New load.S469P Bus=469.1 Phases=1 Model=1 kV=0.24 kW=1.232 kVAr=0.411 Vminpu=0.95 Vmaxpu=1.05 Daily=LoadShapeLoadDefault
New load.S470P Bus=470.1 Phases=1 Model=1 kV=0.24 kW=2.548 kVAr=0.849 Vminpu=0.95 Vmaxpu=1.05 Daily=LoadShapeLoadDefault
New load.S471P Bus=471.1 Phases=1 Model=1 kV=0.24 kW=1.55 kVAr=0.517 Vminpu=0.95 Vmaxpu=1.05 Daily=LoadShapeLoadDefault
New load.S472P Bus=472.1 Phases=1 Model=1 kV=0.24 kW=1.442 kVAr=0.481 Vminpu=0.95 Vmaxpu=1.05 Daily=LoadShapeLoadDefault
New load.S473P Bus=473.1 Phases=1 Model=1 kV=0.24 kW=1.302 kVAr=0.434 Vminpu=0.95 Vmaxpu=1.05 Daily=LoadShapeLoadDefault
New load.S474P Bus=474.1 Phases=1 Model=1 kV=0.24 kW=1.209 kVAr=0.403 Vminpu=0.95 Vmaxpu=1.05 Daily=LoadShapeLoadDefault
New load.S475P Bus=475.1 Phases=1 Model=1 kV=0.24 kW=1.234 kVAr=0.411 Vminpu=0.95 Vmaxpu=1.05 Daily=LoadShapeLoadDefault
New load.S483P Bus=483.1 Phases=1 Model=1 kV=0.24 kW=1.239 kVAr=0.413 Vminpu=0.95 Vmaxpu=1.05 Daily=LoadShapeLoadDefault
New load.S484P Bus=484.1 Phases=1 Model=1 kV=0.24 kW=2.321 kVAr=0.774 Vminpu=0.95 Vmaxpu=1.05 Daily=LoadShapeLoadDefault
New load.S485P Bus=485.1 Phases=1 Model=1 kV=0.24 kW=1.204 kVAr=0.401 Vminpu=0.95 Vmaxpu=1.05 Daily=LoadShapeLoadDefault
New load.S486P Bus=486.1 Phases=1 Model=1 kV=0.24 kW=2.012 kVAr=0.671 Vminpu=0.95 Vmaxpu=1.05 Daily=LoadShapeLoadDefault
New load.S487P Bus=487.1 Phases=1 Model=1 kV=0.24 kW=1.472 kVAr=0.491 Vminpu=0.95 Vmaxpu=1.05 Daily=LoadShapeLoadDefault
New load.S488P Bus=488.1 Phases=1 Model=1 kV=0.24 kW=1.206 kVAr=0.402 Vminpu=0.95 Vmaxpu=1.05 Daily=LoadShapeLoadDefault
New load.S489P Bus=489.1 Phases=1 Model=1 kV=0.24 kW=1.225 kVAr=0.408 Vminpu=0.95 Vmaxpu=1.05 Daily=LoadShapeLoadDefault
New load.S490P Bus=490.1 Phases=1 Model=1 kV=0.24 kW=1.418 kVAr=0.473 Vminpu=0.95 Vmaxpu=1.05 Daily=LoadShapeLoadDefault
New load.S491P Bus=491.1 Phases=1 Model=1 kV=0.24 kW=1.891 kVAr=0.63 Vminpu=0.95 Vmaxpu=1.05 Daily=LoadShapeLoadDefault
New load.S492P Bus=492.1 Phases=1 Model=1 kV=0.24 kW=1.247 kVAr=0.416 Vminpu=0.95 Vmaxpu=1.05 Daily=LoadShapeLoadDefault
New load.S493P Bus=493.1 Phases=1 Model=1 kV=0.24 kW=1.284 kVAr=0.428 Vminpu=0.95 Vmaxpu=1.05 Daily=LoadShapeLoadDefault
New load.S494P Bus=494.1 Phases=1 Model=1 kV=0.24 kW=1.191 kVAr=0.397 Vminpu=0.95 Vmaxpu=1.05 Daily=LoadShapeLoadDefault
New load.S502P Bus=502.1 Phases=1 Model=1 kV=0.24 kW=1.222 kVAr=0.407 Vminpu=0.95 Vmaxpu=1.05 Daily=LoadShapeLoadDefault
New load.S503P Bus=503.1 Phases=1 Model=1 kV=0.24 kW=1.245 kVAr=0.415 Vminpu=0.95 Vmaxpu=1.05 Daily=LoadShapeLoadDefault
New load.S504P Bus=504.1 Phases=1 Model=1 kV=0.24 kW=1.411 kVAr=0.47 Vminpu=0.95 Vmaxpu=1.05 Daily=LoadShapeLoadDefault
New load.S505P Bus=505.1 Phases=1 Model=1 kV=0.24 kW=1.392 kVAr=0.464 Vminpu=0.95 Vmaxpu=1.05 Daily=LoadShapeLoadDefault
New load.S506P Bus=506.1 Phases=1 Model=1 kV=0.24 kW=1.221 kVAr=0.407 Vminpu=0.95 Vmaxpu=1.05 Daily=LoadShapeLoadDefault
New load.S507P Bus=507.1 Phases=1 Model=1 kV=0.24 kW=1.284 kVAr=0.428 Vminpu=0.95 Vmaxpu=1.05 Daily=LoadShapeLoadDefault
New load.S508P Bus=508.1 Phases=1 Model=1 kV=0.24 kW=1.259 kVAr=0.42 Vminpu=0.95 Vmaxpu=1.05 Daily=LoadShapeLoadDefault
New load.S509P Bus=509.1 Phases=1 Model=1 kV=0.24 kW=1.657 kVAr=0.552 Vminpu=0.95 Vmaxpu=1.05 Daily=LoadShapeLoadDefault
New load.S510P Bus=510.1 Phases=1 Model=1 kV=0.24 kW=1.22 kVAr=0.407 Vminpu=0.95 Vmaxpu=1.05 Daily=LoadShapeLoadDefault
New load.S511P Bus=511.1 Phases=1 Model=1 kV=0.24 kW=1.279 kVAr=0.426 Vminpu=0.95 Vmaxpu=1.05 Daily=LoadShapeLoadDefault
New load.S512P Bus=512.1 Phases=1 Model=1 kV=0.24 kW=1.718 kVAr=0.573 Vminpu=0.95 Vmaxpu=1.05 Daily=LoadShapeLoadDefault
New load.S513P Bus=513.1 Phases=1 Model=1 kV=0.24 kW=1.36 kVAr=0.453 Vminpu=0.95 Vmaxpu=1.05 Daily=LoadShapeLoadDefault
New load.S521P Bus=521.1 Phases=1 Model=1 kV=0.24 kW=1.318 kVAr=0.439 Vminpu=0.95 Vmaxpu=1.05 Daily=LoadShapeLoadDefault
New load.S522P Bus=522.1 Phases=1 Model=1 kV=0.24 kW=1.601 kVAr=0.534 Vminpu=0.95 Vmaxpu=1.05 Daily=LoadShapeLoadDefault
New load.S523P Bus=523.1 Phases=1 Model=1 kV=0.24 kW=1.701 kVAr=0.567 Vminpu=0.95 Vmaxpu=1.05 Daily=LoadShapeLoadDefault
New load.S524P Bus=524.1 Phases=1 Model=1 kV=0.24 kW=1.696 kVAr=0.565 Vminpu=0.95 Vmaxpu=1.05 Daily=LoadShapeLoadDefault
New load.S525P Bus=525.1 Phases=1 Model=1 kV=0.24 kW=1.264 kVAr=0.421 Vminpu=0.95 Vmaxpu=1.05 Daily=LoadShapeLoadDefault
New load.S526P Bus=526.1 Phases=1 Model=1 kV=0.24 kW=1.275 kVAr=0.425 Vminpu=0.95 Vmaxpu=1.05 Daily=LoadShapeLoadDefault
New load.S527P Bus=527.1 Phases=1 Model=1 kV=0.24 kW=1.264 kVAr=0.421 Vminpu=0.95 Vmaxpu=1.05 Daily=LoadShapeLoadDefault
New load.S528P Bus=528.1 Phases=1 Model=1 kV=0.24 kW=1.993 kVAr=0.664 Vminpu=0.95 Vmaxpu=1.05 Daily=LoadShapeLoadDefault
New load.S529P Bus=529.1 Phases=1 Model=1 kV=0.24 kW=1.48 kVAr=0.493 Vminpu=0.95 Vmaxpu=1.05 Daily=LoadShapeLoadDefault
New load.S530P Bus=530.1 Phases=1 Model=1 kV=0.24 kW=1.671 kVAr=0.557 Vminpu=0.95 Vmaxpu=1.05 Daily=LoadShapeLoadDefault
New load.S531P Bus=531.1 Phases=1 Model=1 kV=0.24 kW=1.365 kVAr=0.455 Vminpu=0.95 Vmaxpu=1.05 Daily=LoadShapeLoadDefault
New load.S532P Bus=532.1 Phases=1 Model=1 kV=0.24 kW=1.452 kVAr=0.484 Vminpu=0.95 Vmaxpu=1.05 Daily=LoadShapeLoadDefault
New load.S540P Bus=540.1 Phases=1 Model=1 kV=0.24 kW=1.514 kVAr=0.505 Vminpu=0.95 Vmaxpu=1.05 Daily=LoadShapeLoadDefault
New load.S541P Bus=541.1 Phases=1 Model=1 kV=0.24 kW=1.792 kVAr=0.597 Vminpu=0.95 Vmaxpu=1.05 Daily=LoadShapeLoadDefault
New load.S542P Bus=542.1 Phases=1 Model=1 kV=0.24 kW=3.034 kVAr=1.011 Vminpu=0.95 Vmaxpu=1.05 Daily=LoadShapeLoadDefault
New load.S543P Bus=543.1 Phases=1 Model=1 kV=0.24 kW=1.404 kVAr=0.468 Vminpu=0.95 Vmaxpu=1.05 Daily=LoadShapeLoadDefault
New load.S544P Bus=544.1 Phases=1 Model=1 kV=0.24 kW=1.529 kVAr=0.51 Vminpu=0.95 Vmaxpu=1.05 Daily=LoadShapeLoadDefault
New load.S545P Bus=545.1 Phases=1 Model=1 kV=0.24 kW=1.311 kVAr=0.437 Vminpu=0.95 Vmaxpu=1.05 Daily=LoadShapeLoadDefault
New load.S546P Bus=546.1 Phases=1 Model=1 kV=0.24 kW=1.406 kVAr=0.469 Vminpu=0.95 Vmaxpu=1.05 Daily=LoadShapeLoadDefault
New load.S547P Bus=547.1 Phases=1 Model=1 kV=0.24 kW=1.707 kVAr=0.569 Vminpu=0.95 Vmaxpu=1.05 Daily=LoadShapeLoadDefault
New load.S548P Bus=548.1 Phases=1 Model=1 kV=0.24 kW=1.462 kVAr=0.487 Vminpu=0.95 Vmaxpu=1.05 Daily=LoadShapeLoadDefault
New load.S549P Bus=549.1 Phases=1 Model=1 kV=0.24 kW=2.721 kVAr=0.907 Vminpu=0.95 Vmaxpu=1.05 Daily=LoadShapeLoadDefault
New load.S550P Bus=550.1 Phases=1 Model=1 kV=0.24 kW=1.32 kVAr=0.44 Vminpu=0.95 Vmaxpu=1.05 Daily=LoadShapeLoadDefault
New load.S551P Bus=551.1 Phases=1 Model=1 kV=0.24 kW=1.703 kVAr=0.568 Vminpu=0.95 Vmaxpu=1.05 Daily=LoadShapeLoadDefault
New load.S557P Bus=557.1 Phases=1 Model=1 kV=0.24 kW=1.676 kVAr=0.559 Vminpu=0.95 Vmaxpu=1.05 Daily=LoadShapeLoadDefault
New load.S558P Bus=558.1 Phases=1 Model=1 kV=0.24 kW=2.95 kVAr=0.983 Vminpu=0.95 Vmaxpu=1.05 Daily=LoadShapeLoadDefault
New load.S559P Bus=559.1 Phases=1 Model=1 kV=0.24 kW=1.485 kVAr=0.495 Vminpu=0.95 Vmaxpu=1.05 Daily=LoadShapeLoadDefault
New load.S560P Bus=560.1 Phases=1 Model=1 kV=0.24 kW=1.411 kVAr=0.47 Vminpu=0.95 Vmaxpu=1.05 Daily=LoadShapeLoadDefault
New load.S561P Bus=561.1 Phases=1 Model=1 kV=0.24 kW=1.621 kVAr=0.54 Vminpu=0.95 Vmaxpu=1.05 Daily=LoadShapeLoadDefault
New load.S562P Bus=562.1 Phases=1 Model=1 kV=0.24 kW=2.068 kVAr=0.689 Vminpu=0.95 Vmaxpu=1.05 Daily=LoadShapeLoadDefault
New load.S563P Bus=563.1 Phases=1 Model=1 kV=0.24 kW=1.711 kVAr=0.57 Vminpu=0.95 Vmaxpu=1.05 Daily=LoadShapeLoadDefault
New load.S564P Bus=564.1 Phases=1 Model=1 kV=0.24 kW=1.7 kVAr=0.567 Vminpu=0.95 Vmaxpu=1.05 Daily=LoadShapeLoadDefault
New load.S570P Bus=570.1 Phases=1 Model=1 kV=0.24 kW=1.331 kVAr=0.444 Vminpu=0.95 Vmaxpu=1.05 Daily=LoadShapeLoadDefault
New load.S571P Bus=571.1 Phases=1 Model=1 kV=0.24 kW=1.375 kVAr=0.458 Vminpu=0.95 Vmaxpu=1.05 Daily=LoadShapeLoadDefault
New load.S572P Bus=572.1 Phases=1 Model=1 kV=0.24 kW=1.326 kVAr=0.442 Vminpu=0.95 Vmaxpu=1.05 Daily=LoadShapeLoadDefault
New load.S573P Bus=573.1 Phases=1 Model=1 kV=0.24 kW=1.372 kVAr=0.457 Vminpu=0.95 Vmaxpu=1.05 Daily=LoadShapeLoadDefault
New load.S574P Bus=574.1 Phases=1 Model=1 kV=0.24 kW=1.77 kVAr=0.59 Vminpu=0.95 Vmaxpu=1.05 Daily=LoadShapeLoadDefault
New load.S575P Bus=575.1 Phases=1 Model=1 kV=0.24 kW=1.796 kVAr=0.599 Vminpu=0.95 Vmaxpu=1.05 Daily=LoadShapeLoadDefault
New load.S576P Bus=576.1 Phases=1 Model=1 kV=0.24 kW=1.9 kVAr=0.633 Vminpu=0.95 Vmaxpu=1.05 Daily=LoadShapeLoadDefault
New load.S577P Bus=577.1 Phases=1 Model=1 kV=0.24 kW=4.047 kVAr=1.349 Vminpu=0.95 Vmaxpu=1.05 Daily=LoadShapeLoadDefault
New load.S583P Bus=583.1 Phases=1 Model=1 kV=0.24 kW=1.501 kVAr=0.5 Vminpu=0.95 Vmaxpu=1.05 Daily=LoadShapeLoadDefault
New load.S584P Bus=584.1 Phases=1 Model=1 kV=0.24 kW=1.606 kVAr=0.535 Vminpu=0.95 Vmaxpu=1.05 Daily=LoadShapeLoadDefault
New load.S585P Bus=585.1 Phases=1 Model=1 kV=0.24 kW=1.364 kVAr=0.455 Vminpu=0.95 Vmaxpu=1.05 Daily=LoadShapeLoadDefault
New load.S586P Bus=586.1 Phases=1 Model=1 kV=0.24 kW=2.599 kVAr=0.866 Vminpu=0.95 Vmaxpu=1.05 Daily=LoadShapeLoadDefault
New load.S587P Bus=587.1 Phases=1 Model=1 kV=0.24 kW=1.827 kVAr=0.609 Vminpu=0.95 Vmaxpu=1.05 Daily=LoadShapeLoadDefault
New load.S588P Bus=588.1 Phases=1 Model=1 kV=0.24 kW=1.485 kVAr=0.495 Vminpu=0.95 Vmaxpu=1.05 Daily=LoadShapeLoadDefault
New load.S589P Bus=589.1 Phases=1 Model=1 kV=0.24 kW=1.336 kVAr=0.445 Vminpu=0.95 Vmaxpu=1.05 Daily=LoadShapeLoadDefault
New load.S590P Bus=590.1 Phases=1 Model=1 kV=0.24 kW=2.216 kVAr=0.739 Vminpu=0.95 Vmaxpu=1.05 Daily=LoadShapeLoadDefault
New load.S598P Bus=598.1 Phases=1 Model=1 kV=0.24 kW=1.54 kVAr=0.513 Vminpu=0.95 Vmaxpu=1.05 Daily=LoadShapeLoadDefault
New load.S599P Bus=599.1 Phases=1 Model=1 kV=0.24 kW=2.084 kVAr=0.695 Vminpu=0.95 Vmaxpu=1.05 Daily=LoadShapeLoadDefault
New load.S600P Bus=600.1 Phases=1 Model=1 kV=0.24 kW=1.923 kVAr=0.641 Vminpu=0.95 Vmaxpu=1.05 Daily=LoadShapeLoadDefault
New load.S601P Bus=601.1 Phases=1 Model=1 kV=0.24 kW=1.973 kVAr=0.658 Vminpu=0.95 Vmaxpu=1.05 Daily=LoadShapeLoadDefault
New load.S602P Bus=602.1 Phases=1 Model=1 kV=0.24 kW=2.553 kVAr=0.851 Vminpu=0.95 Vmaxpu=1.05 Daily=LoadShapeLoadDefault
New load.S603P Bus=603.1 Phases=1 Model=1 kV=0.24 kW=1.5 kVAr=0.5 Vminpu=0.95 Vmaxpu=1.05 Daily=LoadShapeLoadDefault
New load.S604P Bus=604.1 Phases=1 Model=1 kV=0.24 kW=3.177 kVAr=1.059 Vminpu=0.95 Vmaxpu=1.05 Daily=LoadShapeLoadDefault
New load.S605P Bus=605.1 Phases=1 Model=1 kV=0.24 kW=1.904 kVAr=0.635 Vminpu=0.95 Vmaxpu=1.05 Daily=LoadShapeLoadDefault
New load.S606P Bus=606.1 Phases=1 Model=1 kV=0.24 kW=1.458 kVAr=0.486 Vminpu=0.95 Vmaxpu=1.05 Daily=LoadShapeLoadDefault
New load.S607P Bus=607.1 Phases=1 Model=1 kV=0.24 kW=1.355 kVAr=0.452 Vminpu=0.95 Vmaxpu=1.05 Daily=LoadShapeLoadDefault
New load.S608P Bus=608.1 Phases=1 Model=1 kV=0.24 kW=2.009 kVAr=0.67 Vminpu=0.95 Vmaxpu=1.05 Daily=LoadShapeLoadDefault
New load.S609P Bus=609.1 Phases=1 Model=1 kV=0.24 kW=0.879 kVAr=0.293 Vminpu=0.95 Vmaxpu=1.05 Daily=LoadShapeLoadDefault
New load.S617P Bus=617.1 Phases=1 Model=1 kV=0.24 kW=0.734 kVAr=0.245 Vminpu=0.95 Vmaxpu=1.05 Daily=LoadShapeLoadDefault
New load.S618P Bus=618.1 Phases=1 Model=1 kV=0.24 kW=0.691 kVAr=0.23 Vminpu=0.95 Vmaxpu=1.05 Daily=LoadShapeLoadDefault
New load.S619P Bus=619.1 Phases=1 Model=1 kV=0.24 kW=0.876 kVAr=0.292 Vminpu=0.95 Vmaxpu=1.05 Daily=LoadShapeLoadDefault
New load.S620P Bus=620.1 Phases=1 Model=1 kV=0.24 kW=0.912 kVAr=0.304 Vminpu=0.95 Vmaxpu=1.05 Daily=LoadShapeLoadDefault
New load.S621P Bus=621.1 Phases=1 Model=1 kV=0.24 kW=0.692 kVAr=0.231 Vminpu=0.95 Vmaxpu=1.05 Daily=LoadShapeLoadDefault
New load.S622P Bus=622.1 Phases=1 Model=1 kV=0.24 kW=0.792 kVAr=0.264 Vminpu=0.95 Vmaxpu=1.05 Daily=LoadShapeLoadDefault
New load.S623P Bus=623.1 Phases=1 Model=1 kV=0.24 kW=1.512 kVAr=0.504 Vminpu=0.95 Vmaxpu=1.05 Daily=LoadShapeLoadDefault
New load.S624P Bus=624.1 Phases=1 Model=1 kV=0.24 kW=1.25 kVAr=0.417 Vminpu=0.95 Vmaxpu=1.05 Daily=LoadShapeLoadDefault
New load.S625P Bus=625.1 Phases=1 Model=1 kV=0.24 kW=0.822 kVAr=0.274 Vminpu=0.95 Vmaxpu=1.05 Daily=LoadShapeLoadDefault
New load.S626P Bus=626.1 Phases=1 Model=1 kV=0.24 kW=0.843 kVAr=0.281 Vminpu=0.95 Vmaxpu=1.05 Daily=LoadShapeLoadDefault
New load.S627P Bus=627.1 Phases=1 Model=1 kV=0.24 kW=0.884 kVAr=0.295 Vminpu=0.95 Vmaxpu=1.05 Daily=LoadShapeLoadDefault
New load.S628P Bus=628.1 Phases=1 Model=1 kV=0.24 kW=1.038 kVAr=0.346 Vminpu=0.95 Vmaxpu=1.05 Daily=LoadShapeLoadDefault
New load.S636P Bus=636.1 Phases=1 Model=1 kV=0.24 kW=2.373 kVAr=0.791 Vminpu=0.95 Vmaxpu=1.05 Daily=LoadShapeLoadDefault
New load.S637P Bus=637.1 Phases=1 Model=1 kV=0.24 kW=1.51 kVAr=0.503 Vminpu=0.95 Vmaxpu=1.05 Daily=LoadShapeLoadDefault
New load.S638P Bus=638.1 Phases=1 Model=1 kV=0.24 kW=1.617 kVAr=0.539 Vminpu=0.95 Vmaxpu=1.05 Daily=LoadShapeLoadDefault
New load.S639P Bus=639.1 Phases=1 Model=1 kV=0.24 kW=1.894 kVAr=0.631 Vminpu=0.95 Vmaxpu=1.05 Daily=LoadShapeLoadDefault
New load.S640P Bus=640.1 Phases=1 Model=1 kV=0.24 kW=1.321 kVAr=0.44 Vminpu=0.95 Vmaxpu=1.05 Daily=LoadShapeLoadDefault
New load.S641P Bus=641.1 Phases=1 Model=1 kV=0.24 kW=2.586 kVAr=0.862 Vminpu=0.95 Vmaxpu=1.05 Daily=LoadShapeLoadDefault
New load.S642P Bus=642.1 Phases=1 Model=1 kV=0.24 kW=1.267 kVAr=0.422 Vminpu=0.95 Vmaxpu=1.05 Daily=LoadShapeLoadDefault
New load.S643P Bus=643.1 Phases=1 Model=1 kV=0.24 kW=1.275 kVAr=0.425 Vminpu=0.95 Vmaxpu=1.05 Daily=LoadShapeLoadDefault
New load.S644P Bus=644.1 Phases=1 Model=1 kV=0.24 kW=1.95 kVAr=0.65 Vminpu=0.95 Vmaxpu=1.05 Daily=LoadShapeLoadDefault
New load.S645P Bus=645.1 Phases=1 Model=1 kV=0.24 kW=2.034 kVAr=0.678 Vminpu=0.95 Vmaxpu=1.05 Daily=LoadShapeLoadDefault
New load.S646P Bus=646.1 Phases=1 Model=1 kV=0.24 kW=1.349 kVAr=0.45 Vminpu=0.95 Vmaxpu=1.05 Daily=LoadShapeLoadDefault
New load.S647P Bus=647.1 Phases=1 Model=1 kV=0.24 kW=1.679 kVAr=0.56 Vminpu=0.95 Vmaxpu=1.05 Daily=LoadShapeLoadDefault
New load.S654P Bus=654.1 Phases=1 Model=1 kV=0.24 kW=1.324 kVAr=0.441 Vminpu=0.95 Vmaxpu=1.05 Daily=LoadShapeLoadDefault
New load.S655P Bus=655.1 Phases=1 Model=1 kV=0.24 kW=1.377 kVAr=0.459 Vminpu=0.95 Vmaxpu=1.05 Daily=LoadShapeLoadDefault
New load.S656P Bus=656.1 Phases=1 Model=1 kV=0.24 kW=1.808 kVAr=0.603 Vminpu=0.95 Vmaxpu=1.05 Daily=LoadShapeLoadDefault
New load.S657P Bus=657.1 Phases=1 Model=1 kV=0.24 kW=2.042 kVAr=0.681 Vminpu=0.95 Vmaxpu=1.05 Daily=LoadShapeLoadDefault
New load.S658P Bus=658.1 Phases=1 Model=1 kV=0.24 kW=2.015 kVAr=0.672 Vminpu=0.95 Vmaxpu=1.05 Daily=LoadShapeLoadDefault
New load.S659P Bus=659.1 Phases=1 Model=1 kV=0.24 kW=1.387 kVAr=0.462 Vminpu=0.95 Vmaxpu=1.05 Daily=LoadShapeLoadDefault
New load.S660P Bus=660.1 Phases=1 Model=1 kV=0.24 kW=1.363 kVAr=0.454 Vminpu=0.95 Vmaxpu=1.05 Daily=LoadShapeLoadDefault
New load.S661P Bus=661.1 Phases=1 Model=1 kV=0.24 kW=1.301 kVAr=0.434 Vminpu=0.95 Vmaxpu=1.05 Daily=LoadShapeLoadDefault
New load.S662P Bus=662.1 Phases=1 Model=1 kV=0.24 kW=1.339 kVAr=0.446 Vminpu=0.95 Vmaxpu=1.05 Daily=LoadShapeLoadDefault
New load.S663P Bus=663.1 Phases=1 Model=1 kV=0.24 kW=1.376 kVAr=0.459 Vminpu=0.95 Vmaxpu=1.05 Daily=LoadShapeLoadDefault
New load.S670P Bus=670.1 Phases=1 Model=1 kV=0.24 kW=1.206 kVAr=0.402 Vminpu=0.95 Vmaxpu=1.05 Daily=LoadShapeLoadDefault
New load.S671P Bus=671.1 Phases=1 Model=1 kV=0.24 kW=1.384 kVAr=0.461 Vminpu=0.95 Vmaxpu=1.05 Daily=LoadShapeLoadDefault
New load.S672P Bus=672.1 Phases=1 Model=1 kV=0.24 kW=2.939 kVAr=0.98 Vminpu=0.95 Vmaxpu=1.05 Daily=LoadShapeLoadDefault
New load.S673P Bus=673.1 Phases=1 Model=1 kV=0.24 kW=0.983 kVAr=0.328 Vminpu=0.95 Vmaxpu=1.05 Daily=LoadShapeLoadDefault
New load.S674P Bus=674.1 Phases=1 Model=1 kV=0.24 kW=2.582 kVAr=0.861 Vminpu=0.95 Vmaxpu=1.05 Daily=LoadShapeLoadDefault
New load.S675P Bus=675.1 Phases=1 Model=1 kV=0.24 kW=2.168 kVAr=0.723 Vminpu=0.95 Vmaxpu=1.05 Daily=LoadShapeLoadDefault
New load.S676P Bus=676.1 Phases=1 Model=1 kV=0.24 kW=1.496 kVAr=0.499 Vminpu=0.95 Vmaxpu=1.05 Daily=LoadShapeLoadDefault
New load.S677P Bus=677.1 Phases=1 Model=1 kV=0.24 kW=1.57 kVAr=0.523 Vminpu=0.95 Vmaxpu=1.05 Daily=LoadShapeLoadDefault
New load.S678P Bus=678.1 Phases=1 Model=1 kV=0.24 kW=2.161 kVAr=0.72 Vminpu=0.95 Vmaxpu=1.05 Daily=LoadShapeLoadDefault
New load.S679P Bus=679.1 Phases=1 Model=1 kV=0.24 kW=2.857 kVAr=0.952 Vminpu=0.95 Vmaxpu=1.05 Daily=LoadShapeLoadDefault
New load.S687P Bus=687.1 Phases=1 Model=1 kV=0.24 kW=0.692 kVAr=0.231 Vminpu=0.95 Vmaxpu=1.05 Daily=LoadShapeLoadDefault
New load.S688P Bus=688.1 Phases=1 Model=1 kV=0.24 kW=1.561 kVAr=0.52 Vminpu=0.95 Vmaxpu=1.05 Daily=LoadShapeLoadDefault
New load.S689P Bus=689.1 Phases=1 Model=1 kV=0.24 kW=0.846 kVAr=0.282 Vminpu=0.95 Vmaxpu=1.05 Daily=LoadShapeLoadDefault
New load.S690P Bus=690.1 Phases=1 Model=1 kV=0.24 kW=0.795 kVAr=0.265 Vminpu=0.95 Vmaxpu=1.05 Daily=LoadShapeLoadDefault
New load.S691P Bus=691.1 Phases=1 Model=1 kV=0.24 kW=2.373 kVAr=0.791 Vminpu=0.95 Vmaxpu=1.05 Daily=LoadShapeLoadDefault
New load.S692P Bus=692.1 Phases=1 Model=1 kV=0.24 kW=2.066 kVAr=0.689 Vminpu=0.95 Vmaxpu=1.05 Daily=LoadShapeLoadDefault
New load.S693P Bus=693.1 Phases=1 Model=1 kV=0.24 kW=0.756 kVAr=0.252 Vminpu=0.95 Vmaxpu=1.05 Daily=LoadShapeLoadDefault
New load.S694P Bus=694.1 Phases=1 Model=1 kV=0.24 kW=0.7 kVAr=0.233 Vminpu=0.95 Vmaxpu=1.05 Daily=LoadShapeLoadDefault
New load.S695P Bus=695.1 Phases=1 Model=1 kV=0.24 kW=0.69 kVAr=0.23 Vminpu=0.95 Vmaxpu=1.05 Daily=LoadShapeLoadDefault
New load.S696P Bus=696.1 Phases=1 Model=1 kV=0.24 kW=0.983 kVAr=0.328 Vminpu=0.95 Vmaxpu=1.05 Daily=LoadShapeLoadDefault
New load.S697P Bus=697.1 Phases=1 Model=1 kV=0.24 kW=0.797 kVAr=0.266 Vminpu=0.95 Vmaxpu=1.05 Daily=LoadShapeLoadDefault
New load.S698P Bus=698.1 Phases=1 Model=1 kV=0.24 kW=1.345 kVAr=0.448 Vminpu=0.95 Vmaxpu=1.05 Daily=LoadShapeLoadDefault
New load.S706P Bus=706.1 Phases=1 Model=1 kV=0.24 kW=1.126 kVAr=0.375 Vminpu=0.95 Vmaxpu=1.05 Daily=LoadShapeLoadDefault
New load.S707P Bus=707.1 Phases=1 Model=1 kV=0.24 kW=1.55 kVAr=0.517 Vminpu=0.95 Vmaxpu=1.05 Daily=LoadShapeLoadDefault
New load.S708P Bus=708.1 Phases=1 Model=1 kV=0.24 kW=0.733 kVAr=0.244 Vminpu=0.95 Vmaxpu=1.05 Daily=LoadShapeLoadDefault
New load.S709P Bus=709.1 Phases=1 Model=1 kV=0.24 kW=0.897 kVAr=0.299 Vminpu=0.95 Vmaxpu=1.05 Daily=LoadShapeLoadDefault
New load.S710P Bus=710.1 Phases=1 Model=1 kV=0.24 kW=0.71 kVAr=0.237 Vminpu=0.95 Vmaxpu=1.05 Daily=LoadShapeLoadDefault
New load.S711P Bus=711.1 Phases=1 Model=1 kV=0.24 kW=0.895 kVAr=0.298 Vminpu=0.95 Vmaxpu=1.05 Daily=LoadShapeLoadDefault
New load.S712P Bus=712.1 Phases=1 Model=1 kV=0.24 kW=0.726 kVAr=0.242 Vminpu=0.95 Vmaxpu=1.05 Daily=LoadShapeLoadDefault
New load.S713P Bus=713.1 Phases=1 Model=1 kV=0.24 kW=0.646 kVAr=0.215 Vminpu=0.95 Vmaxpu=1.05 Daily=LoadShapeLoadDefault
New load.S714P Bus=714.1 Phases=1 Model=1 kV=0.24 kW=0.777 kVAr=0.259 Vminpu=0.95 Vmaxpu=1.05 Daily=LoadShapeLoadDefault
New load.S715P Bus=715.1 Phases=1 Model=1 kV=0.24 kW=0.845 kVAr=0.282 Vminpu=0.95 Vmaxpu=1.05 Daily=LoadShapeLoadDefault
New load.S716P Bus=716.1 Phases=1 Model=1 kV=0.24 kW=0.803 kVAr=0.268 Vminpu=0.95 Vmaxpu=1.05 Daily=LoadShapeLoadDefault
New load.S717P Bus=717.1 Phases=1 Model=1 kV=0.24 kW=0.952 kVAr=0.317 Vminpu=0.95 Vmaxpu=1.05 Daily=LoadShapeLoadDefault
New load.S723P Bus=723.1 Phases=1 Model=1 kV=0.24 kW=0.727 kVAr=0.242 Vminpu=0.95 Vmaxpu=1.05 Daily=LoadShapeLoadDefault
New load.S724P Bus=724.1 Phases=1 Model=1 kV=0.24 kW=0.673 kVAr=0.224 Vminpu=0.95 Vmaxpu=1.05 Daily=LoadShapeLoadDefault
New load.S725P Bus=725.1 Phases=1 Model=1 kV=0.24 kW=1.106 kVAr=0.369 Vminpu=0.95 Vmaxpu=1.05 Daily=LoadShapeLoadDefault
New load.S726P Bus=726.1 Phases=1 Model=1 kV=0.24 kW=1.4 kVAr=0.467 Vminpu=0.95 Vmaxpu=1.05 Daily=LoadShapeLoadDefault
New load.S727P Bus=727.1 Phases=1 Model=1 kV=0.24 kW=1.523 kVAr=0.508 Vminpu=0.95 Vmaxpu=1.05 Daily=LoadShapeLoadDefault
New load.S728P Bus=728.1 Phases=1 Model=1 kV=0.24 kW=2.151 kVAr=0.717 Vminpu=0.95 Vmaxpu=1.05 Daily=LoadShapeLoadDefault
New load.S729P Bus=729.1 Phases=1 Model=1 kV=0.24 kW=0.777 kVAr=0.259 Vminpu=0.95 Vmaxpu=1.05 Daily=LoadShapeLoadDefault
New load.S730P Bus=730.1 Phases=1 Model=1 kV=0.24 kW=0.723 kVAr=0.241 Vminpu=0.95 Vmaxpu=1.05 Daily=LoadShapeLoadDefault
