rawData/archived/ieee730_1ph/PVSystem_21_100_0.dss
New PVsystem.PV41 irrad=1.0 Phases=1 Bus1=41.1 kV=0.24 kVA=0.9972 Pmpp=0.831 %cutin=0.001 %cutout=0.001
New PVsystem.PV45 irrad=1.0 Phases=1 Bus1=45.1 kV=0.24 kVA=1.0944 Pmpp=0.912 %cutin=0.001 %cutout=0.001
New PVsystem.PV49 irrad=1.0 Phases=1 Bus1=49.1 kV=0.24 kVA=1.5 Pmpp=1.25 %cutin=0.001 %cutout=0.001
New PVsystem.PV59 irrad=1.0 Phases=1 Bus1=59.1 kV=0.24 kVA=1.2456 Pmpp=1.038 %cutin=0.001 %cutout=0.001
New PVsystem.PV63 irrad=1.0 Phases=1 Bus1=63.1 kV=0.24 kVA=2.2728 Pmpp=1.894 %cutin=0.001 %cutout=0.001
New PVsystem.PV67 irrad=1.0 Phases=1 Bus1=67.1 kV=0.24 kVA=1.53 Pmpp=1.275 %cutin=0.001 %cutout=0.001
New PVsystem.PV76 irrad=1.0 Phases=1 Bus1=76.1 kV=0.24 kVA=2.0148 Pmpp=1.679 %cutin=0.001 %cutout=0.001
New PVsystem.PV80 irrad=1.0 Phases=1 Bus1=80.1 kV=0.24 kVA=2.4504 Pmpp=2.042 %cutin=0.001 %cutout=0.001
New PVsystem.PV89 irrad=1.0 Phases=1 Bus1=89.1 kV=0.24 kVA=1.5612 Pmpp=1.301 %cutin=0.001 %cutout=0.001
New PVsystem.PV93 irrad=1.0 Phases=1 Bus1=93.1 kV=0.24 kVA=1.6608 Pmpp=1.384 %cutin=0.001 %cutout=0.001
New PVsystem.PV102 irrad=1.0 Phases=1 Bus1=102.1 kV=0.24 kVA=2.6016 Pmpp=2.168 %cutin=0.001 %cutout=0.001
New PVsystem.PV106 irrad=1.0 Phases=1 Bus1=106.1 kV=0.24 kVA=3.4284 Pmpp=2.857 %cutin=0.001 %cutout=0.001
New PVsystem.PV117 irrad=1.0 Phases=1 Bus1=117.1 kV=0.24 kVA=0.954 Pmpp=0.795 %cutin=0.001 %cutout=0.001
New PVsystem.PV121 irrad=1.0 Phases=1 Bus1=121.1 kV=0.24 kVA=0.84 Pmpp=0.7 %cutin=0.001 %cutout=0.001
New PVsystem.PV125 irrad=1.0 Phases=1 Bus1=125.1 kV=0.24 kVA=1.614 Pmpp=1.345 %cutin=0.001 %cutout=0.001
New PVsystem.PV136 irrad=1.0 Phases=1 Bus1=136.1 kV=0.24 kVA=1.0764 Pmpp=0.897 %cutin=0.001 %cutout=0.001
New PVsystem.PV140 irrad=1.0 Phases=1 Bus1=140.1 kV=0.24 kVA=0.7752 Pmpp=0.646 %cutin=0.001 %cutout=0.001
New PVsystem.PV144 irrad=1.0 Phases=1 Bus1=144.1 kV=0.24 kVA=1.1424 Pmpp=0.952 %cutin=0.001 %cutout=0.001
New PVsystem.PV155 irrad=1.0 Phases=1 Bus1=155.1 kV=0.24 kVA=1.68 Pmpp=1.4 %cutin=0.001 %cutout=0.001
New PVsystem.PV159 irrad=1.0 Phases=1 Bus1=159.1 kV=0.24 kVA=0.8676 Pmpp=0.723 %cutin=0.001 %cutout=0.001
New PVsystem.PV163 irrad=1.0 Phases=1 Bus1=163.1 kV=0.24 kVA=1.0704 Pmpp=0.892 %cutin=0.001 %cutout=0.001
New PVsystem.PV174 irrad=1.0 Phases=1 Bus1=174.1 kV=0.24 kVA=1.7892 Pmpp=1.491 %cutin=0.001 %cutout=0.001
New PVsystem.PV178 irrad=1.0 Phases=1 Bus1=178.1 kV=0.24 kVA=0.7644 Pmpp=0.637 %cutin=0.001 %cutout=0.001
New PVsystem.PV182 irrad=1.0 Phases=1 Bus1=182.1 kV=0.24 kVA=1.1136 Pmpp=0.928 %cutin=0.001 %cutout=0.001
New PVsystem.PV191 irrad=1.0 Phases=1 Bus1=191.1 kV=0.24 kVA=1.1232 Pmpp=0.936 %cutin=0.001 %cutout=0.001
New PVsystem.PV195 irrad=1.0 Phases=1 Bus1=195.1 kV=0.24 kVA=2.412 Pmpp=2.01 %cutin=0.001 %cutout=0.001
New PVsystem.PV204 irrad=1.0 Phases=1 Bus1=204.1 kV=0.24 kVA=2.2428 Pmpp=1.869 %cutin=0.001 %cutout=0.001
New PVsystem.PV208 irrad=1.0 Phases=1 Bus1=208.1 kV=0.24 kVA=2.07 Pmpp=1.725 %cutin=0.001 %cutout=0.001
New PVsystem.PV216 irrad=1.0 Phases=1 Bus1=216.1 kV=0.24 kVA=2.586 Pmpp=2.155 %cutin=0.001 %cutout=0.001
New PVsystem.PV225 irrad=1.0 Phases=1 Bus1=225.1 kV=0.24 kVA=3.7188 Pmpp=3.099 %cutin=0.001 %cutout=0.001
New PVsystem.PV229 irrad=1.0 Phases=1 Bus1=229.1 kV=0.24 kVA=4.7604 Pmpp=3.967 %cutin=0.001 %cutout=0.001
New PVsystem.PV238 irrad=1.0 Phases=1 Bus1=238.1 kV=0.24 kVA=3.1968 Pmpp=2.664 %cutin=0.001 %cutout=0.001
New PVsystem.PV242 irrad=1.0 Phases=1 Bus1=242.1 kV=0.24 kVA=1.578 Pmpp=1.315 %cutin=0.001 %cutout=0.001
New PVsystem.PV253 irrad=1.0 Phases=1 Bus1=253.1 kV=0.24 kVA=1.6932 Pmpp=1.411 %cutin=0.001 %cutout=0.001
New PVsystem.PV257 irrad=1.0 Phases=1 Bus1=257.1 kV=0.24 kVA=2.376 Pmpp=1.98 %cutin=0.001 %cutout=0.001
New PVsystem.PV261 irrad=1.0 Phases=1 Bus1=261.1 kV=0.24 kVA=2.7624 Pmpp=2.302 %cutin=0.001 %cutout=0.001
New PVsystem.PV270 irrad=1.0 Phases=1 Bus1=270.1 kV=0.24 kVA=3.936 Pmpp=3.28 %cutin=0.001 %cutout=0.001
New PVsystem.PV274 irrad=1.0 Phases=1 Bus1=274.1 kV=0.24 kVA=4.0656 Pmpp=3.388 %cutin=0.001 %cutout=0.001
New PVsystem.PV283 irrad=1.0 Phases=1 Bus1=283.1 kV=0.24 kVA=2.7828 Pmpp=2.319 %cutin=0.001 %cutout=0.001
New PVsystem.PV287 irrad=1.0 Phases=1 Bus1=287.1 kV=0.24 kVA=1.6536 Pmpp=1.378 %cutin=0.001 %cutout=0.001
New PVsystem.PV296 irrad=1.0 Phases=1 Bus1=296.1 kV=0.24 kVA=1.9032 Pmpp=1.586 %cutin=0.001 %cutout=0.001
New PVsystem.PV300 irrad=1.0 Phases=1 Bus1=300.1 kV=0.24 kVA=2.6268 Pmpp=2.189 %cutin=0.001 %cutout=0.001
New PVsystem.PV310 irrad=1.0 Phases=1 Bus1=310.1 kV=0.24 kVA=2.1036 Pmpp=1.753 %cutin=0.001 %cutout=0.001
New PVsystem.PV314 irrad=1.0 Phases=1 Bus1=314.1 kV=0.24 kVA=4.4688 Pmpp=3.724 %cutin=0.001 %cutout=0.001
New PVsystem.PV318 irrad=1.0 Phases=1 Bus1=318.1 kV=0.24 kVA=5.0184 Pmpp=4.182 %cutin=0.001 %cutout=0.001
New PVsystem.PV328 irrad=1.0 Phases=1 Bus1=328.1 kV=0.24 kVA=1.5228 Pmpp=1.269 %cutin=0.001 %cutout=0.001
New PVsystem.PV332 irrad=1.0 Phases=1 Bus1=332.1 kV=0.24 kVA=2.586 Pmpp=2.155 %cutin=0.001 %cutout=0.001
New PVsystem.PV342 irrad=1.0 Phases=1 Bus1=342.1 kV=0.24 kVA=3.0708 Pmpp=2.559 %cutin=0.001 %cutout=0.001
New PVsystem.PV346 irrad=1.0 Phases=1 Bus1=346.1 kV=0.24 kVA=2.6064 Pmpp=2.172 %cutin=0.001 %cutout=0.001
New PVsystem.PV350 irrad=1.0 Phases=1 Bus1=350.1 kV=0.24 kVA=3.0336 Pmpp=2.528 %cutin=0.001 %cutout=0.001
New PVsystem.PV360 irrad=1.0 Phases=1 Bus1=360.1 kV=0.24 kVA=3.8664 Pmpp=3.222 %cutin=0.001 %cutout=0.001
New PVsystem.PV364 irrad=1.0 Phases=1 Bus1=364.1 kV=0.24 kVA=2.8356 Pmpp=2.363 %cutin=0.001 %cutout=0.001
New PVsystem.PV374 irrad=1.0 Phases=1 Bus1=374.1 kV=0.24 kVA=3.378 Pmpp=2.815 %cutin=0.001 %cutout=0.001
New PVsystem.PV378 irrad=1.0 Phases=1 Bus1=378.1 kV=0.24 kVA=5.2992 Pmpp=4.416 %cutin=0.001 %cutout=0.001
New PVsystem.PV382 irrad=1.0 Phases=1 Bus1=382.1 kV=0.24 kVA=2.2308 Pmpp=1.859 %cutin=0.001 %cutout=0.001
New PVsystem.PV392 irrad=1.0 Phases=1 Bus1=392.1 kV=0.24 kVA=2.022 Pmpp=1.685 %cutin=0.001 %cutout=0.001
New PVsystem.PV396 irrad=1.0 Phases=1 Bus1=396.1 kV=0.24 kVA=4.8972 Pmpp=4.081 %cutin=0.001 %cutout=0.001
New PVsystem.PV407 irrad=1.0 Phases=1 Bus1=407.1 kV=0.24 kVA=2.6052 Pmpp=2.171 %cutin=0.001 %cutout=0.001
New PVsystem.PV411 irrad=1.0 Phases=1 Bus1=411.1 kV=0.24 kVA=1.3296 Pmpp=1.108 %cutin=0.001 %cutout=0.001
New PVsystem.PV415 irrad=1.0 Phases=1 Bus1=415.1 kV=0.24 kVA=0.888 Pmpp=0.74 %cutin=0.001 %cutout=0.001
New PVsystem.PV426 irrad=1.0 Phases=1 Bus1=426.1 kV=0.24 kVA=1.1724 Pmpp=0.977 %cutin=0.001 %cutout=0.001
New PVsystem.PV430 irrad=1.0 Phases=1 Bus1=430.1 kV=0.24 kVA=1.566 Pmpp=1.305 %cutin=0.001 %cutout=0.001
New PVsystem.PV434 irrad=1.0 Phases=1 Bus1=434.1 kV=0.24 kVA=1.0284 Pmpp=0.857 %cutin=0.001 %cutout=0.001
New PVsystem.PV445 irrad=1.0 Phases=1 Bus1=445.1 kV=0.24 kVA=1.7988 Pmpp=1.499 %cutin=0.001 %cutout=0.001
New PVsystem.PV449 irrad=1.0 Phases=1 Bus1=449.1 kV=0.24 kVA=1.7388 Pmpp=1.449 %cutin=0.001 %cutout=0.001
New PVsystem.PV453 irrad=1.0 Phases=1 Bus1=453.1 kV=0.24 kVA=1.122 Pmpp=0.935 %cutin=0.001 %cutout=0.001
New PVsystem.PV464 irrad=1.0 Phases=1 Bus1=464.1 kV=0.24 kVA=1.6152 Pmpp=1.346 %cutin=0.001 %cutout=0.001
New PVsystem.PV468 irrad=1.0 Phases=1 Bus1=468.1 kV=0.24 kVA=1.4352 Pmpp=1.196 %cutin=0.001 %cutout=0.001
New PVsystem.PV472 irrad=1.0 Phases=1 Bus1=472.1 kV=0.24 kVA=1.7304 Pmpp=1.442 %cutin=0.001 %cutout=0.001
New PVsystem.PV483 irrad=1.0 Phases=1 Bus1=483.1 kV=0.24 kVA=1.4868 Pmpp=1.239 %cutin=0.001 %cutout=0.001
New PVsystem.PV487 irrad=1.0 Phases=1 Bus1=487.1 kV=0.24 kVA=1.7664 Pmpp=1.472 %cutin=0.001 %cutout=0.001
New PVsystem.PV491 irrad=1.0 Phases=1 Bus1=491.1 kV=0.24 kVA=2.2692 Pmpp=1.891 %cutin=0.001 %cutout=0.001
New PVsystem.PV502 irrad=1.0 Phases=1 Bus1=502.1 kV=0.24 kVA=1.4664 Pmpp=1.222 %cutin=0.001 %cutout=0.001
New PVsystem.PV506 irrad=1.0 Phases=1 Bus1=506.1 kV=0.24 kVA=1.4652 Pmpp=1.221 %cutin=0.001 %cutout=0.001
New PVsystem.PV510 irrad=1.0 Phases=1 Bus1=510.1 kV=0.24 kVA=1.464 Pmpp=1.22 %cutin=0.001 %cutout=0.001
New PVsystem.PV521 irrad=1.0 Phases=1 Bus1=521.1 kV=0.24 kVA=1.5816 Pmpp=1.318 %cutin=0.001 %cutout=0.001
New PVsystem.PV525 irrad=1.0 Phases=1 Bus1=525.1 kV=0.24 kVA=1.5168 Pmpp=1.264 %cutin=0.001 %cutout=0.001
New PVsystem.PV529 irrad=1.0 Phases=1 Bus1=529.1 kV=0.24 kVA=1.776 Pmpp=1.48 %cutin=0.001 %cutout=0.001
New PVsystem.PV540 irrad=1.0 Phases=1 Bus1=540.1 kV=0.24 kVA=1.8168 Pmpp=1.514 %cutin=0.001 %cutout=0.001
New PVsystem.PV544 irrad=1.0 Phases=1 Bus1=544.1 kV=0.24 kVA=1.8348 Pmpp=1.529 %cutin=0.001 %cutout=0.001
New PVsystem.PV548 irrad=1.0 Phases=1 Bus1=548.1 kV=0.24 kVA=1.7544 Pmpp=1.462 %cutin=0.001 %cutout=0.001
New PVsystem.PV557 irrad=1.0 Phases=1 Bus1=557.1 kV=0.24 kVA=2.0112 Pmpp=1.676 %cutin=0.001 %cutout=0.001
New PVsystem.PV561 irrad=1.0 Phases=1 Bus1=561.1 kV=0.24 kVA=1.9452 Pmpp=1.621 %cutin=0.001 %cutout=0.001
New PVsystem.PV570 irrad=1.0 Phases=1 Bus1=570.1 kV=0.24 kVA=1.5972 Pmpp=1.331 %cutin=0.001 %cutout=0.001
New PVsystem.PV574 irrad=1.0 Phases=1 Bus1=574.1 kV=0.24 kVA=2.124 Pmpp=1.77 %cutin=0.001 %cutout=0.001
New PVsystem.PV583 irrad=1.0 Phases=1 Bus1=583.1 kV=0.24 kVA=1.8012 Pmpp=1.501 %cutin=0.001 %cutout=0.001
New PVsystem.PV587 irrad=1.0 Phases=1 Bus1=587.1 kV=0.24 kVA=2.1924 Pmpp=1.827 %cutin=0.001 %cutout=0.001
New PVsystem.PV598 irrad=1.0 Phases=1 Bus1=598.1 kV=0.24 kVA=1.848 Pmpp=1.54 %cutin=0.001 %cutout=0.001
